# generated using pymatgen
data_CuH2(C3O2)2
_symmetry_space_group_name_H-M   'P 1'
_cell_length_a   18.62731394
_cell_length_b   18.62731394
_cell_length_c   18.62731394
_cell_angle_alpha   60.00000000
_cell_angle_beta   60.00000000
_cell_angle_gamma   60.00000000
_symmetry_Int_Tables_number   1
_chemical_formula_structural   CuH2(C3O2)2
_chemical_formula_sum   'Cu12 H24 C72 O48'
_cell_volume   4570.20524390
_cell_formula_units_Z   12
loop_
 _symmetry_equiv_pos_site_id
 _symmetry_equiv_pos_as_xyz
  1  'x, y, z'
loop_
 _atom_site_type_symbol
 _atom_site_label
 _atom_site_symmetry_multiplicity
 _atom_site_fract_x
 _atom_site_fract_y
 _atom_site_fract_z
 _atom_site_occupancy
  C  C1  1  0.38700000  0.96900000  0.25700000  1
  C  C1  1  0.43100000  0.97500000  0.16300000  1
  C  C1  1  0.30100000  0.96700000  0.30100000  1
  C  C1  1  0.74300000  0.61300000  0.61300000  1
  C  C1  1  0.38700000  0.25700000  0.96900000  1
  C  C1  1  0.03100000  0.61300000  0.61300000  1
  C  C1  1  0.96900000  0.38700000  0.38700000  1
  C  C1  1  0.61300000  0.03100000  0.74300000  1
  C  C1  1  0.25700000  0.38700000  0.38700000  1
  C  C1  1  0.61300000  0.74300000  0.03100000  1
  C  C1  1  0.96900000  0.25700000  0.38700000  1
  C  C1  1  0.61300000  0.03100000  0.61300000  1
  C  C1  1  0.38700000  0.38700000  0.25700000  1
  C  C1  1  0.74300000  0.61300000  0.03100000  1
  C  C1  1  0.25700000  0.96900000  0.38700000  1
  C  C1  1  0.61300000  0.74300000  0.61300000  1
  C  C1  1  0.38700000  0.38700000  0.96900000  1
  C  C1  1  0.03100000  0.61300000  0.74300000  1
  C  C1  1  0.25700000  0.38700000  0.96900000  1
  C  C1  1  0.38700000  0.25700000  0.38700000  1
  C  C1  1  0.61300000  0.61300000  0.03100000  1
  C  C1  1  0.96900000  0.38700000  0.25700000  1
  C  C1  1  0.74300000  0.03100000  0.61300000  1
  C  C1  1  0.38700000  0.96900000  0.38700000  1
  C  C1  1  0.61300000  0.61300000  0.74300000  1
  C  C1  1  0.03100000  0.74300000  0.61300000  1
  C  C2  1  0.83700000  0.56900000  0.56900000  1
  C  C2  1  0.43100000  0.16300000  0.97500000  1
  C  C2  1  0.02500000  0.56900000  0.56900000  1
  C  C2  1  0.97500000  0.43100000  0.43100000  1
  C  C2  1  0.56900000  0.02500000  0.83700000  1
  C  C2  1  0.16300000  0.43100000  0.43100000  1
  C  C2  1  0.56900000  0.83700000  0.02500000  1
  C  C2  1  0.97500000  0.16300000  0.43100000  1
  C  C2  1  0.56900000  0.02500000  0.56900000  1
  C  C2  1  0.43100000  0.43100000  0.16300000  1
  C  C2  1  0.83700000  0.56900000  0.02500000  1
  C  C2  1  0.16300000  0.97500000  0.43100000  1
  C  C2  1  0.56900000  0.83700000  0.56900000  1
  C  C2  1  0.43100000  0.43100000  0.97500000  1
  C  C2  1  0.02500000  0.56900000  0.83700000  1
  C  C2  1  0.16300000  0.43100000  0.97500000  1
  C  C2  1  0.43100000  0.16300000  0.43100000  1
  C  C2  1  0.56900000  0.56900000  0.02500000  1
  C  C2  1  0.97500000  0.43100000  0.16300000  1
  C  C2  1  0.83700000  0.02500000  0.56900000  1
  C  C2  1  0.43100000  0.97500000  0.43100000  1
  C  C2  1  0.56900000  0.56900000  0.83700000  1
  C  C2  1  0.02500000  0.83700000  0.56900000  1
  C  C3  1  0.69900000  0.69900000  0.56900000  1
  C  C3  1  0.43000000  0.30000000  0.96800000  1
  C  C3  1  0.03200000  0.57000000  0.69800000  1
  C  C3  1  0.96800000  0.30000000  0.43000000  1
  C  C3  1  0.57000000  0.03200000  0.69800000  1
  C  C3  1  0.30100000  0.42900000  0.30100000  1
  C  C3  1  0.69900000  0.69900000  0.03100000  1
  C  C3  1  0.96700000  0.30100000  0.30100000  1
  C  C3  1  0.69800000  0.03200000  0.57000000  1
  C  C3  1  0.42900000  0.30100000  0.30100000  1
  C  C3  1  0.69800000  0.57000000  0.03200000  1
  C  C3  1  0.30000000  0.96800000  0.43000000  1
  C  C3  1  0.56900000  0.69900000  0.69900000  1
  C  C3  1  0.30000000  0.43000000  0.96800000  1
  C  C3  1  0.03100000  0.69900000  0.69900000  1
  C  C3  1  0.30100000  0.30100000  0.96700000  1
  C  C3  1  0.30100000  0.30100000  0.42900000  1
  C  C3  1  0.57000000  0.69800000  0.03200000  1
  C  C3  1  0.96800000  0.43000000  0.30000000  1
  C  C3  1  0.69900000  0.03100000  0.69900000  1
  C  C3  1  0.43000000  0.96800000  0.30000000  1
  C  C3  1  0.69900000  0.56900000  0.69900000  1
  C  C3  1  0.03200000  0.69800000  0.57000000  1
  Cu  Cu72  1  0.43000000  0.00000000  0.00000000  1
  Cu  Cu73  1  0.00000000  0.57000000  0.43000000  1
  Cu  Cu74  1  0.57000000  0.00000000  0.00000000  1
  Cu  Cu75  1  0.00000000  0.43000000  0.57000000  1
  Cu  Cu76  1  1.00000000  1.00000000  0.43000000  1
  Cu  Cu77  1  0.57000000  0.00000000  0.43000000  1
  Cu  Cu78  1  0.57000000  0.43000000  1.00000000  1
  Cu  Cu79  1  1.00000000  0.43000000  0.00000000  1
  Cu  Cu80  1  1.00000000  0.00000000  0.57000000  1
  Cu  Cu81  1  0.43000000  1.00000000  0.57000000  1
  Cu  Cu82  1  0.43000000  0.57000000  1.00000000  1
  Cu  Cu83  1  1.00000000  0.57000000  0.00000000  1
  H  H4  1  0.27200000  0.96800000  0.27200000  1
  H  H5  1  0.72800000  0.72800000  0.51200000  1
  H  H5  1  0.48800000  0.27200000  0.96800000  1
  H  H5  1  0.03200000  0.51200000  0.72800000  1
  H  H5  1  0.96800000  0.27200000  0.48800000  1
  H  H5  1  0.51200000  0.03200000  0.72800000  1
  H  H5  1  0.27200000  0.48800000  0.27200000  1
  H  H5  1  0.72800000  0.72800000  0.03200000  1
  H  H5  1  0.96800000  0.27200000  0.27200000  1
  H  H5  1  0.72800000  0.03200000  0.51200000  1
  H  H5  1  0.48800000  0.27200000  0.27200000  1
  H  H6  1  0.72800000  0.51200000  0.03200000  1
  H  H6  1  0.27200000  0.96800000  0.48800000  1
  H  H6  1  0.51200000  0.72800000  0.72800000  1
  H  H6  1  0.27200000  0.48800000  0.96800000  1
  H  H6  1  0.03200000  0.72800000  0.72800000  1
  H  H6  1  0.27200000  0.27200000  0.96800000  1
  H  H6  1  0.27200000  0.27200000  0.48800000  1
  H  H6  1  0.51200000  0.72800000  0.03200000  1
  H  H6  1  0.96800000  0.48800000  0.27200000  1
  H  H6  1  0.72800000  0.03200000  0.72800000  1
  H  H7  1  0.48800000  0.96800000  0.27200000  1
  H  H7  1  0.72800000  0.51200000  0.72800000  1
  H  H7  1  0.03200000  0.72800000  0.51200000  1
  O  O4  1  0.38800000  0.97800000  0.12600000  1
  O  O4  1  0.87400000  0.61200000  0.49200000  1
  O  O4  1  0.50800000  0.12600000  0.97800000  1
  O  O4  1  0.02200000  0.49200000  0.61200000  1
  O  O4  1  0.97800000  0.38800000  0.50800000  1
  O  O4  1  0.49200000  0.02200000  0.87400000  1
  O  O4  1  0.12600000  0.50800000  0.38800000  1
  O  O4  1  0.61200000  0.87400000  0.02200000  1
  O  O4  1  0.97800000  0.12600000  0.38800000  1
  O  O4  1  0.61200000  0.02200000  0.49200000  1
  O  O4  1  0.50800000  0.38800000  0.12600000  1
  O  O4  1  0.87400000  0.49200000  0.02200000  1
  O  O4  1  0.12600000  0.97800000  0.50800000  1
  O  O4  1  0.49200000  0.87400000  0.61200000  1
  O  O4  1  0.38800000  0.50800000  0.97800000  1
  O  O4  1  0.02200000  0.61200000  0.87400000  1
  O  O4  1  0.12600000  0.38800000  0.97800000  1
  O  O4  1  0.38800000  0.12600000  0.50800000  1
  O  O4  1  0.49200000  0.61200000  0.02200000  1
  O  O4  1  0.97800000  0.50800000  0.12600000  1
  O  O4  1  0.87400000  0.02200000  0.61200000  1
  O  O4  1  0.50800000  0.97800000  0.38800000  1
  O  O4  1  0.61200000  0.49200000  0.87400000  1
  O  O4  1  0.02200000  0.87400000  0.49200000  1
  O  O4  1  0.61200000  0.02200000  0.87400000  1
  O  O4  1  0.12600000  0.38800000  0.50800000  1
  O  O4  1  0.49200000  0.87400000  0.02200000  1
  O  O4  1  0.97800000  0.50800000  0.38800000  1
  O  O4  1  0.02200000  0.61200000  0.49200000  1
  O  O4  1  0.50800000  0.97800000  0.12600000  1
  O  O4  1  0.87400000  0.49200000  0.61200000  1
  O  O4  1  0.38800000  0.12600000  0.97800000  1
  O  O4  1  0.02200000  0.87400000  0.61200000  1
  O  O4  1  0.38800000  0.97800000  0.50800000  1
  O  O4  1  0.49200000  0.61200000  0.87400000  1
  O  O4  1  0.12600000  0.50800000  0.97800000  1
  O  O4  1  0.87400000  0.02200000  0.49200000  1
  O  O4  1  0.50800000  0.12600000  0.38800000  1
  O  O4  1  0.61200000  0.49200000  0.02200000  1
  O  O4  1  0.97800000  0.38800000  0.12600000  1
  O  O4  1  0.87400000  0.61200000  0.02200000  1
  O  O4  1  0.61200000  0.87400000  0.49200000  1
  O  O4  1  0.50800000  0.38800000  0.97800000  1
  O  O4  1  0.02200000  0.49200000  0.87400000  1
  O  O4  1  0.12600000  0.97800000  0.38800000  1
  O  O4  1  0.49200000  0.02200000  0.61200000  1
  O  O4  1  0.38800000  0.50800000  0.12600000  1
  O  O4  1  0.97800000  0.12600000  0.50800000  1
