# generated using pymatgen
data_Zn8H25C97N31O32
_symmetry_space_group_name_H-M   'P 1'
_cell_length_a   24.44253958
_cell_length_b   24.44922835
_cell_length_c   24.44390190
_cell_angle_alpha   89.99465330
_cell_angle_beta   89.99835814
_cell_angle_gamma   89.99942315
_symmetry_Int_Tables_number   1
_chemical_formula_structural   Zn8H25C97N31O32
_chemical_formula_sum   'Zn8 H25 C97 N31 O32'
_cell_volume   14607.70580796
_cell_formula_units_Z   1
loop_
 _symmetry_equiv_pos_site_id
 _symmetry_equiv_pos_as_xyz
  1  'x, y, z'
loop_
 _atom_site_type_symbol
 _atom_site_label
 _atom_site_symmetry_multiplicity
 _atom_site_fract_x
 _atom_site_fract_y
 _atom_site_fract_z
 _atom_site_occupancy
  C  C25  1  0.15796500  0.29106300  0.30216800  1
  C  C27  1  0.15819600  0.08706100  0.09808900  1
  C  C29  1  0.36214900  0.29121600  0.09819300  1
  C  C31  1  0.36217500  0.08716300  0.30226000  1
  C  C33  1  0.29650200  0.15277800  0.23657000  1
  C  C35  1  0.29649300  0.22551700  0.16382200  1
  C  C37  1  0.26012000  0.18912500  0.20017700  1
  C  C39  1  0.22258600  0.09609800  0.17206800  1
  C  C41  1  0.18955100  0.06302300  0.13898600  1
  C  C43  1  0.15891900  0.14324500  0.08933800  1
  C  C45  1  0.19195100  0.17631700  0.12242200  1
  C  C47  1  0.33331900  0.11602900  0.21262400  1
  C  C49  1  0.36639300  0.08299000  0.24570900  1
  C  C51  1  0.32582600  0.12344900  0.32668500  1
  C  C53  1  0.29275200  0.15648800  0.29360000  1
  C  C55  1  0.33324000  0.26231300  0.18780500  1
  C  C57  1  0.36630600  0.29539200  0.15475000  1
  C  C59  1  0.32587100  0.25488300  0.07373800  1
  C  C61  1  0.29280800  0.22180200  0.10678800  1
  C  C63  1  0.24762300  0.26225000  0.27332900  1
  C  C65  1  0.21451400  0.29528600  0.30637800  1
  C  C67  1  0.13356100  0.25474800  0.26583500  1
  C  C69  1  0.16667300  0.22171300  0.23278400  1
  C  C71  1  0.22370400  0.22546400  0.23653400  1
  C  C73  1  0.22378500  0.15274100  0.16378600  1
  C  C75  1  0.12219000  0.32770900  0.33885300  1
  C  C77  1  0.12211500  0.05004700  0.06208200  1
  C  C79  1  0.39882800  0.32793300  0.06247900  1
  C  C81  1  0.39822300  0.05112500  0.33928600  1
  C  C83  1  0.86199200  0.58698500  0.59807700  1
  C  C85  1  0.65818800  0.79129600  0.59821800  1
  C  C87  1  0.65806500  0.58726900  0.80230800  1
  C  C89  1  0.86243000  0.79101400  0.80212600  1
  C  C91  1  0.79662400  0.72545500  0.73652500  1
  C  C93  1  0.72377000  0.65282700  0.73658900  1
  C  C95  1  0.76016800  0.68914200  0.70018200  1
  C  C97  1  0.73217800  0.78218700  0.66258900  1
  C  C99  1  0.69913100  0.81529200  0.62954100  1
  C  C101  1  0.64935800  0.73512600  0.59898400  1
  C  C103  1  0.68240700  0.70202400  0.63202900  1
  C  C105  1  0.77274000  0.76226500  0.77331900  1
  C  C107  1  0.80588300  0.79527400  0.80635700  1
  C  C109  1  0.88679400  0.75466700  0.76579900  1
  C  C111  1  0.85365000  0.72165700  0.73276100  1
  C  C113  1  0.74771400  0.61601800  0.77335400  1
  C  C115  1  0.71462000  0.58301000  0.80645200  1
  C  C117  1  0.63364900  0.62361600  0.76601300  1
  C  C119  1  0.66673700  0.65662600  0.73291900  1
  C  C121  1  0.83321800  0.61589900  0.68771700  1
  C  C123  1  0.86621200  0.58279100  0.65462500  1
  C  C125  1  0.82570000  0.62333900  0.57365900  1
  C  C127  1  0.79270300  0.65644400  0.60675500  1
  C  C129  1  0.79646400  0.65272400  0.66378400  1
  C  C131  1  0.72381500  0.72555700  0.66383200  1
  C  C133  1  0.89861600  0.55026100  0.56232100  1
  C  C135  1  0.62222100  0.82834100  0.56212200  1
  C  C137  1  0.62230600  0.55062800  0.83902400  1
  C  C139  1  0.89951900  0.82701800  0.83813500  1
  C  C213  1  0.58848500  0.38082600  0.97009500  1
  C  C215  1  0.49044800  0.38072800  0.87194600  1
  C  C217  1  0.43168600  0.49780100  0.93050500  1
  C  C219  1  0.52972300  0.49789900  0.02865400  1
  C  C221  1  0.93204800  0.99759400  0.96958200  1
  C  C223  1  0.03032300  0.99743100  0.87166600  1
  C  C225  1  0.08878900  0.88036100  0.93054400  1
  C  C227  1  0.99051300  0.88052200  0.02845900  1
  C  C229  1  0.49075900  0.86094700  0.39161600  1
  C  C231  1  0.58859600  0.95927500  0.39183300  1
  C  C233  1  0.52971000  0.01756200  0.50900000  1
  C  C235  1  0.43180700  0.91929800  0.50871700  1
  C  C237  1  0.06856800  0.41939200  0.52839600  1
  C  C239  1  0.06834000  0.51731900  0.43015300  1
  C  C241  1  0.95117400  0.45850900  0.37178100  1
  C  C243  1  0.95141200  0.36057000  0.47001400  1
  C  C247  1  0.48152900  0.81223400  0.35275900  1
  C  C251  1  0.10727100  0.56588000  0.42042500  1
  C  C257  1  0.91207700  0.46802900  0.32330200  1
  C  C261  1  0.91251800  0.31197200  0.47970600  1
  C  C267  1  0.31036100  0.26637700  0.27746000  1
  C  C271  1  0.13741400  0.84142000  0.92115400  1
  C  C275  1  0.64040100  0.69711600  0.69247100  1
  C  C279  1  0.63719600  0.96901900  0.35293700  1
  C  C285  1  0.32171900  0.12754700  0.38942000  1
  C  C293  1  0.40673200  0.33586900  0.18113100  1
  C  C299  1  0.53915900  0.06605700  0.54807400  1
  C  C303  1  0.63709000  0.34191300  0.97970700  1
  C  C307  1  0.53923600  0.53687100  0.07722300  1
  C  C313  1  0.25237200  0.18133400  0.08040800  1
  C  C319  1  0.19327000  0.23863000  0.11330600  1
  C  C329  1  0.18823500  0.00071100  0.14809800  1
  C  C335  1  0.33744700  0.11194900  0.14989200  1
  C  C343  1  0.40689700  0.04256300  0.21936600  1
  C  C349  1  0.90664500  0.54228900  0.68096600  1
  C  C363  1  0.60380300  0.70923800  0.56400100  1
  C  C367  1  0.57091400  0.62778100  0.76195100  1
  C  C379  1  0.87992700  0.68116500  0.69228200  1
  C  C383  1  0.77960700  0.83576700  0.84683600  1
  H  H245  1  0.23400200  0.32523600  0.33633800  1
  H  H255  1  0.09746400  0.41238500  0.56432500  1
  H  H265  1  0.08712600  0.25168100  0.26278500  1
  H  H283  1  0.39570800  0.52660300  0.92338900  1
  H  H289  1  0.14718900  0.19176300  0.20282200  1
  H  H291  1  0.03749000  0.02621900  0.83568500  1
  H  H297  1  0.48340900  0.35188500  0.83599000  1
  H  H311  1  0.32286000  0.25185700  0.02730100  1
  H  H317  1  0.98334100  0.85173000  0.06443500  1
  H  H323  1  0.89609500  0.02645800  0.97657500  1
  H  H325  1  0.39582900  0.91208900  0.53750200  1
  H  H327  1  0.13300700  0.16244200  0.05564700  1
  H  H333  1  0.24850300  0.07689500  0.20574800  1
  H  H339  1  0.33624500  0.26534200  0.23424300  1
  H  H341  1  0.26277800  0.18641900  0.31310100  1
  H  H347  1  0.83628600  0.61286600  0.73415600  1
  H  H353  1  0.82264000  0.62638100  0.52722500  1
  H  H355  1  0.76277700  0.68642900  0.58725800  1
  H  H357  1  0.79415100  0.61291800  0.77634500  1
  H  H359  1  0.73411600  0.55303800  0.83639200  1
  H  H361  1  0.67559400  0.65590900  0.63303900  1
  H  H371  1  0.70594900  0.86140300  0.62852400  1
  H  H373  1  0.76589200  0.80135500  0.68848300  1
  H  H375  1  0.72630700  0.76536500  0.77638000  1
  H  H377  1  0.93322900  0.75157800  0.76272900  1
  N  N21  1  0.42828000  0.35738300  0.03209300  1
  N  N23  1  0.59188600  0.52124200  0.86850400  1
  N  N141  1  0.09213200  0.02091000  0.03192200  1
  N  N163  1  0.92870800  0.85704300  0.86819900  1
  N  N165  1  0.42831800  0.02107500  0.36842300  1
  N  N187  1  0.59209100  0.85750400  0.53212900  1
  N  N189  1  0.09175200  0.35713100  0.36827500  1
  N  N211  1  0.92799100  0.52077600  0.53189700  1
  N  N249  1  0.47457700  0.77554300  0.32349400  1
  N  N253  1  0.13659400  0.60245700  0.41309700  1
  N  N259  1  0.88260900  0.47522100  0.28680800  1
  N  N263  1  0.88322300  0.27536700  0.48700600  1
  N  N269  1  0.35761300  0.26948300  0.28057200  1
  N  N273  1  0.17405500  0.81210500  0.91409800  1
  N  N277  1  0.62056300  0.72761100  0.66200400  1
  N  N281  1  0.67379800  0.97636100  0.32363700  1
  N  N287  1  0.31863400  0.13064400  0.43667200  1
  N  N295  1  0.43718000  0.36635700  0.20100100  1
  N  N301  1  0.54628400  0.10257800  0.57751200  1
  N  N305  1  0.67370000  0.31260500  0.98694700  1
  N  N309  1  0.54640000  0.56622400  0.11380800  1
  N  N315  1  0.22191100  0.15085900  0.06053800  1
  N  N321  1  0.19426400  0.28556500  0.10643900  1
  N  N331  1  0.18724500  0.95377600  0.15495900  1
  N  N337  1  0.34055900  0.10887600  0.10263900  1
  N  N345  1  0.43740200  0.01211300  0.19952300  1
  N  N351  1  0.93710100  0.51178400  0.70080300  1
  N  N365  1  0.56949400  0.68973900  0.53765100  1
  N  N369  1  0.52366000  0.63091500  0.75888500  1
  N  N381  1  0.89971900  0.65066800  0.66179300  1
  N  N385  1  0.75981500  0.86626600  0.87732300  1
  O  O1  1  0.47372000  0.51146000  0.90737800  1
  O  O3  1  0.59895600  0.41975500  0.94072300  1
  O  O5  1  0.51979000  0.41967500  0.86146700  1
  O  O7  1  0.55288700  0.51154000  0.98663300  1
  O  O9  1  0.46728400  0.36708600  0.91396800  1
  O  O11  1  0.54645100  0.36716600  0.99322300  1
  O  O13  1  0.42121500  0.45887100  0.95987800  1
  O  O19  1  0.50038100  0.45895100  0.03913400  1
  O  O143  1  0.04679300  0.86672400  0.90733700  1
  O  O145  1  0.92159600  0.95863800  0.94024400  1
  O  O147  1  0.00095500  0.95850700  0.86117600  1
  O  O149  1  0.96743300  0.86685400  0.98640500  1
  O  O151  1  0.05340200  0.01109800  0.91372000  1
  O  O153  1  0.97404300  0.01122900  0.99278800  1
  O  O155  1  0.09924000  0.91931600  0.95988000  1
  O  O161  1  0.01988100  0.91944600  0.03894900  1
  O  O167  1  0.55292700  0.97556300  0.52258800  1
  O  O169  1  0.52003700  0.85051700  0.43050200  1
  O  O171  1  0.59909400  0.92986600  0.43073000  1
  O  O173  1  0.47387000  0.89621300  0.52236100  1
  O  O175  1  0.54653400  0.98236000  0.37819000  1
  O  O177  1  0.46747700  0.90301000  0.37796300  1
  O  O179  1  0.50036700  0.02805700  0.47004800  1
  O  O185  1  0.42131000  0.94870700  0.46982100  1
  O  O191  1  0.93757100  0.48169500  0.41379600  1
  O  O193  1  0.02961200  0.44872400  0.53889200  1
  O  O195  1  0.02942100  0.52780900  0.45956800  1
  O  O197  1  0.93776300  0.40261000  0.49312100  1
  O  O199  1  0.08197800  0.47529100  0.40705700  1
  O  O201  1  0.08217100  0.39620600  0.48638100  1
  O  O203  1  0.99012900  0.42917700  0.36128600  1
  O  O209  1  0.99032000  0.35009200  0.44061000  1
  Zn  Zn15  1  0.47549500  0.40466800  0.98488700  1
  Zn  Zn17  1  0.54467500  0.47395700  0.91571400  1
  Zn  Zn157  1  0.04496900  0.97362300  0.98467600  1
  Zn  Zn159  1  0.97586700  0.90433100  0.91544800  1
  Zn  Zn181  1  0.47557800  0.97386900  0.41566300  1
  Zn  Zn183  1  0.54482700  0.90470500  0.48488600  1
  Zn  Zn205  1  0.04449500  0.40435300  0.41549600  1
  Zn  Zn207  1  0.97524700  0.47354800  0.48468100  1
