# generated using pymatgen
data_Zn4H36C84N6O25
_symmetry_space_group_name_H-M   'P 1'
_cell_length_a   22.19436311
_cell_length_b   22.20739897
_cell_length_c   22.20837101
_cell_angle_alpha   109.48456640
_cell_angle_beta   109.46076789
_cell_angle_gamma   109.45898626
_symmetry_Int_Tables_number   1
_chemical_formula_structural   Zn4H36C84N6O25
_chemical_formula_sum   'Zn4 H36 C84 N6 O25'
_cell_volume   8427.23748279
_cell_formula_units_Z   1
loop_
 _symmetry_equiv_pos_site_id
 _symmetry_equiv_pos_as_xyz
  1  'x, y, z'
loop_
 _atom_site_type_symbol
 _atom_site_label
 _atom_site_symmetry_multiplicity
 _atom_site_fract_x
 _atom_site_fract_y
 _atom_site_fract_z
 _atom_site_occupancy
  C  C35  1  0.63229500  0.63228200  0.50390500  1
  C  C37  1  0.69041300  0.69039300  0.50390600  1
  C  C39  1  0.63238900  0.49650700  0.63976200  1
  C  C41  1  0.69048700  0.49649100  0.69787600  1
  C  C43  1  0.08429500  0.08419900  0.57085000  1
  C  C45  1  0.13890300  0.13881100  0.57086200  1
  C  C51  1  0.07193400  0.07207100  0.43714100  1
  C  C55  1  0.01732500  0.01746300  0.43713000  1
  C  C57  1  0.02351000  0.02352700  0.50398700  1
  C  C59  1  0.09047700  0.09026100  0.63770200  1
  C  C61  1  0.03587400  0.03565200  0.63769000  1
  C  C63  1  0.97508900  0.97498000  0.57082700  1
  C  C65  1  0.96890700  0.96891700  0.50397600  1
  C  C67  1  0.95653100  0.95678900  0.37026200  1
  C  C69  1  0.90192100  0.90218000  0.37025700  1
  C  C71  1  0.90810600  0.90824400  0.43711400  1
  C  C73  1  0.85351900  0.85363600  0.43710100  1
  C  C77  1  0.92048000  0.92037100  0.57081700  1
  C  C79  1  0.18661800  0.18675600  0.43716800  1
  C  C81  1  0.24122800  0.24136000  0.43717800  1
  C  C83  1  0.30819200  0.30809700  0.57089900  1
  C  C85  1  0.25358400  0.25348900  0.57088900  1
  C  C87  1  0.19279400  0.19281900  0.50402100  1
  C  C89  1  0.80580700  0.80568400  0.57078700  1
  C  C91  1  0.75119800  0.75106500  0.57076900  1
  C  C93  1  0.68423600  0.68433400  0.43704800  1
  C  C95  1  0.73884300  0.73894700  0.43706600  1
  C  C97  1  0.79962800  0.79962400  0.50394000  1
  C  C103  1  0.01729700  0.49652400  0.09175500  1
  C  C105  1  0.07188500  0.49651800  0.14636900  1
  C  C111  1  0.13880800  0.49639900  0.07951500  1
  C  C115  1  0.08422300  0.49641000  0.02490500  1
  C  C117  1  0.02346500  0.49646800  0.03102500  1
  C  C119  1  0.95654200  0.49658200  0.09787200  1
  C  C121  1  0.90195600  0.49658600  0.04326000  1
  C  C123  1  0.90812400  0.49653000  0.98253000  1
  C  C125  1  0.96887900  0.49647100  0.97641200  1
  C  C127  1  0.09039500  0.49636200  0.96417300  1
  C  C129  1  0.03580300  0.49637300  0.90956200  1
  C  C131  1  0.97504500  0.49643100  0.91568200  1
  C  C133  1  0.92046200  0.49641900  0.86107100  1
  C  C137  1  0.85353900  0.49654000  0.92791900  1
  C  C139  1  0.25344000  0.49637900  0.19420500  1
  C  C141  1  0.30802200  0.49636400  0.24881200  1
  C  C143  1  0.24109600  0.49648500  0.31566300  1
  C  C145  1  0.18651000  0.49649400  0.26105200  1
  C  C147  1  0.19268500  0.49644500  0.20032400  1
  C  C149  1  0.73890700  0.49654600  0.81322700  1
  C  C151  1  0.68431900  0.49654700  0.75860600  1
  C  C153  1  0.75125100  0.49643100  0.69176200  1
  C  C155  1  0.80583400  0.49642600  0.74637600  1
  C  C157  1  0.79965900  0.49648700  0.80711200  1
  C  C163  1  0.36012100  0.36013800  0.50401700  1
  C  C165  1  0.30201600  0.30203900  0.50404100  1
  C  C167  1  0.49644700  0.63283100  0.64032400  1
  C  C169  1  0.49643600  0.69093800  0.69843400  1
  C  C171  1  0.36001100  0.49643900  0.36764000  1
  C  C173  1  0.30186000  0.49642400  0.30954800  1
  C  C175  1  0.42939700  0.01782400  0.02529100  1
  C  C177  1  0.42937600  0.07242200  0.07988000  1
  C  C183  1  0.56316100  0.13931000  0.14671500  1
  C  C187  1  0.56318000  0.08471400  0.09212200  1
  C  C189  1  0.49629700  0.02397000  0.03141300  1
  C  C191  1  0.36251800  0.95708300  0.96458300  1
  C  C193  1  0.36254000  0.90248800  0.90999800  1
  C  C195  1  0.42943900  0.90863500  0.91612000  1
  C  C197  1  0.49631800  0.96937600  0.97682800  1
  C  C199  1  0.63008500  0.09086400  0.09824100  1
  C  C201  1  0.63009900  0.03626300  0.04364200  1
  C  C203  1  0.56321500  0.97551900  0.98293200  1
  C  C205  1  0.56323900  0.92092800  0.92836500  1
  C  C209  1  0.42946000  0.85404100  0.86152900  1
  C  C211  1  0.56311300  0.25395900  0.26135800  1
  C  C213  1  0.56309300  0.30855100  0.31595200  1
  C  C215  1  0.42930900  0.24166100  0.24911400  1
  C  C217  1  0.42932900  0.18706600  0.19452100  1
  C  C219  1  0.49623300  0.19321900  0.20064400  1
  C  C221  1  0.42950900  0.73938900  0.74689800  1
  C  C223  1  0.42953700  0.68479200  0.69231300  1
  C  C225  1  0.56332100  0.75168900  0.75915400  1
  C  C227  1  0.56329400  0.80628100  0.81373700  1
  C  C229  1  0.49638200  0.80012700  0.80760300  1
  C  C235  1  0.49643100  0.36061900  0.36809000  1
  C  C237  1  0.49619300  0.30241100  0.30983200  1
  H  H239  1  0.75624200  0.75601000  0.62521400  1
  H  H241  1  0.13985700  0.49631400  0.95917700  1
  H  H243  1  0.95150900  0.49663100  0.14732000  1
  H  H245  1  0.95148400  0.95183700  0.31582100  1
  H  H247  1  0.25847300  0.49633400  0.14475500  1
  H  H249  1  0.61755800  0.35800300  0.36538700  1
  H  H251  1  0.85242100  0.85278300  0.31580400  1
  H  H253  1  0.13704200  0.49654300  0.26604100  1
  H  H255  1  0.23618900  0.23640900  0.38273600  1
  H  H257  1  0.73380700  0.73400600  0.38262500  1
  H  H259  1  0.63473700  0.63492400  0.38260900  1
  H  H261  1  0.04091700  0.04059900  0.69213200  1
  H  H263  1  0.04083900  0.49633500  0.86011600  1
  H  H265  1  0.13712300  0.13735400  0.38271300  1
  H  H267  1  0.30803700  0.95206900  0.95958600  1
  H  H269  1  0.63484500  0.49659200  0.76359500  1
  H  H271  1  0.35748400  0.49630500  0.24381500  1
  H  H273  1  0.73387400  0.49660300  0.86267900  1
  H  H275  1  0.85248900  0.49663600  0.04825100  1
  H  H277  1  0.37486600  0.13760900  0.14509100  1
  H  H279  1  0.37506900  0.63533000  0.64288100  1
  H  H281  1  0.30807600  0.85303300  0.86056900  1
  H  H283  1  0.23608200  0.49653200  0.36512200  1
  H  H285  1  0.37502300  0.73437200  0.74189300  1
  H  H287  1  0.85530300  0.49637100  0.74138800  1
  H  H289  1  0.75626400  0.49638200  0.64230600  1
  H  H291  1  0.37483600  0.23666600  0.24413600  1
  H  H293  1  0.61759800  0.25897700  0.26635300  1
  H  H295  1  0.68454900  0.14031600  0.14766500  1
  H  H297  1  0.68458300  0.04128600  0.04862900  1
  H  H299  1  0.61778900  0.75668100  0.76413000  1
  H  H301  1  0.85529500  0.85508600  0.62524300  1
  H  H303  1  0.13996700  0.13966200  0.69215300  1
  H  H305  1  0.61775600  0.85573700  0.86317500  1
  H  H307  1  0.25862500  0.25843500  0.62533000  1
  H  H309  1  0.35769300  0.35751000  0.62534300  1
  N  N49  1  0.13272700  0.13274800  0.50400900  1
  N  N75  1  0.85969500  0.85970000  0.50395300  1
  N  N109  1  0.13263900  0.49645300  0.14025000  1
  N  N135  1  0.85970800  0.49648500  0.86718900  1
  N  N181  1  0.49625600  0.13316300  0.14059500  1
  N  N207  1  0.49636000  0.86018700  0.86765100  1
  O  O9  1  0.49647300  0.49647500  0.50396000  1
  O  O11  1  0.34748100  0.41173200  0.50401900  1
  O  O13  1  0.49652100  0.34752400  0.41920900  1
  O  O15  1  0.41163800  0.49644000  0.35501200  1
  O  O17  1  0.41175800  0.34753600  0.50400000  1
  O  O19  1  0.34741400  0.49644900  0.41925700  1
  O  O21  1  0.49646900  0.41171200  0.35498500  1
  O  O23  1  0.58120100  0.58120000  0.43970500  1
  O  O25  1  0.56068900  0.64544300  0.65291000  1
  O  O27  1  0.64545200  0.64543100  0.56811900  1
  O  O29  1  0.43221300  0.58122100  0.58874000  1
  O  O31  1  0.58132000  0.43229600  0.58869200  1
  O  O33  1  0.64552000  0.56071500  0.65288300  1
  O  O47  1  0.19561300  0.19545200  0.62772500  1
  O  O53  1  0.07169400  0.07192800  0.38027800  1
  O  O99  1  0.79678600  0.79697600  0.38026600  1
  O  O101  1  0.92070400  0.92050700  0.62766900  1
  O  O107  1  0.07168000  0.49659100  0.20305900  1
  O  O113  1  0.19549800  0.49634400  0.07932600  1
  O  O159  1  0.92061900  0.49634900  0.80436200  1
  O  O161  1  0.79685300  0.49660500  0.92810200  1
  O  O179  1  0.37248100  0.07223700  0.07969000  1
  O  O185  1  0.62004500  0.19598800  0.20336900  1
  O  O231  1  0.62010500  0.92106400  0.92850500  1
  O  O233  1  0.37258500  0.79736400  0.80486700  1
  Zn  Zn1  1  0.40903000  0.49646900  0.50399300  1
  Zn  Zn3  1  0.49651700  0.40909100  0.50396600  1
  Zn  Zn5  1  0.49644600  0.49645700  0.41654900  1
  Zn  Zn7  1  0.58389900  0.58388200  0.59133500  1
