# generated using pymatgen
data_Cu2H5C9O7
_symmetry_space_group_name_H-M   'P 1'
_cell_length_a   6.91580000
_cell_length_b   19.21000000
_cell_length_c   19.21000000
_cell_angle_alpha   90.00000000
_cell_angle_beta   90.00000000
_cell_angle_gamma   90.00000000
_symmetry_Int_Tables_number   1
_chemical_formula_structural   Cu2H5C9O7
_chemical_formula_sum   'Cu16 H40 C72 O56'
_cell_volume   2552.09687078
_cell_formula_units_Z   8
loop_
 _symmetry_equiv_pos_site_id
 _symmetry_equiv_pos_as_xyz
  1  'x, y, z'
loop_
 _atom_site_type_symbol
 _atom_site_label
 _atom_site_symmetry_multiplicity
 _atom_site_fract_x
 _atom_site_fract_y
 _atom_site_fract_z
 _atom_site_occupancy
  Cu  Cu1  1  0.50000000  0.67264000  0.17264000  1.0
  Cu  Cu2  1  0.50000000  0.82736000  0.32736000  1.0
  Cu  Cu3  1  0.50000000  0.32736000  0.67264000  1.0
  Cu  Cu4  1  0.50000000  0.17264000  0.82736000  1.0
  Cu  Cu5  1  0.50000000  0.32736000  0.82736000  1.0
  Cu  Cu6  1  0.50000000  0.17264000  0.67264000  1.0
  Cu  Cu7  1  0.50000000  0.67264000  0.32736000  1.0
  Cu  Cu8  1  0.50000000  0.82736000  0.17264000  1.0
  Cu  Cu9  1  0.35189000  0.53003000  0.53003000  1.0
  Cu  Cu10  1  0.35189000  0.96997000  0.96997000  1.0
  Cu  Cu11  1  0.35189000  0.96997000  0.53003000  1.0
  Cu  Cu12  1  0.35189000  0.53003000  0.96997000  1.0
  Cu  Cu13  1  0.64811000  0.46997000  0.03003000  1.0
  Cu  Cu14  1  0.64811000  0.03003000  0.46997000  1.0
  Cu  Cu15  1  0.64811000  0.03003000  0.03003000  1.0
  Cu  Cu16  1  0.64811000  0.46997000  0.46997000  1.0
  H  H1  1  0.00830000  0.56590000  0.35510000  1.0
  H  H2  1  0.00830000  0.93410000  0.14490000  1.0
  H  H3  1  0.00830000  0.14490000  0.56590000  1.0
  H  H4  1  0.00830000  0.35510000  0.93410000  1.0
  H  H5  1  0.99170000  0.43410000  0.85510000  1.0
  H  H6  1  0.99170000  0.06590000  0.64490000  1.0
  H  H7  1  0.99170000  0.85510000  0.06590000  1.0
  H  H8  1  0.99170000  0.64490000  0.43410000  1.0
  H  H9  1  0.99170000  0.43410000  0.64490000  1.0
  H  H10  1  0.99170000  0.06590000  0.85510000  1.0
  H  H11  1  0.99170000  0.85510000  0.43410000  1.0
  H  H12  1  0.99170000  0.64490000  0.06590000  1.0
  H  H13  1  0.00830000  0.56590000  0.14490000  1.0
  H  H14  1  0.00830000  0.93410000  0.35510000  1.0
  H  H15  1  0.00830000  0.14490000  0.93410000  1.0
  H  H16  1  0.00830000  0.35510000  0.56590000  1.0
  H  H17  1  0.05500000  0.60250000  0.60250000  1.0
  H  H18  1  0.97000000  0.55900000  0.55900000  1.0
  H  H19  1  0.05500000  0.89750000  0.89750000  1.0
  H  H20  1  0.97000000  0.94100000  0.94100000  1.0
  H  H21  1  0.05500000  0.89750000  0.60250000  1.0
  H  H22  1  0.97000000  0.94100000  0.55900000  1.0
  H  H23  1  0.05500000  0.60250000  0.89750000  1.0
  H  H24  1  0.97000000  0.55900000  0.94100000  1.0
  H  H25  1  0.94500000  0.39750000  0.10250000  1.0
  H  H26  1  0.03000000  0.44100000  0.05900000  1.0
  H  H27  1  0.94500000  0.10250000  0.39750000  1.0
  H  H28  1  0.03000000  0.05900000  0.44100000  1.0
  H  H29  1  0.94500000  0.10250000  0.10250000  1.0
  H  H30  1  0.03000000  0.05900000  0.05900000  1.0
  H  H31  1  0.94500000  0.39750000  0.39750000  1.0
  H  H32  1  0.03000000  0.44100000  0.44100000  1.0
  H  H33  1  0.47140000  0.48840000  0.25000000  1.0
  H  H34  1  0.47140000  0.01160000  0.25000000  1.0
  H  H35  1  0.47140000  0.25000000  0.48840000  1.0
  H  H36  1  0.47140000  0.25000000  0.01160000  1.0
  H  H37  1  0.52860000  0.51160000  0.75000000  1.0
  H  H38  1  0.52860000  0.98840000  0.75000000  1.0
  H  H39  1  0.52860000  0.75000000  0.98840000  1.0
  H  H40  1  0.52860000  0.75000000  0.51160000  1.0
  C  C1  1  0.07240000  0.55650000  0.31241000  1.0
  C  C2  1  0.25460000  0.52472000  0.31270000  1.0
  C  C3  1  0.35080000  0.51203000  0.38111000  1.0
  C  C4  1  0.07240000  0.94350000  0.18759000  1.0
  C  C5  1  0.25460000  0.97528000  0.18730000  1.0
  C  C6  1  0.35080000  0.98797000  0.11889000  1.0
  C  C7  1  0.07240000  0.18759000  0.55650000  1.0
  C  C8  1  0.25460000  0.18730000  0.52472000  1.0
  C  C9  1  0.35080000  0.11889000  0.51203000  1.0
  C  C10  1  0.07240000  0.31241000  0.94350000  1.0
  C  C11  1  0.25460000  0.31270000  0.97528000  1.0
  C  C12  1  0.35080000  0.38111000  0.98797000  1.0
  C  C13  1  0.92760000  0.44350000  0.81241000  1.0
  C  C14  1  0.74540000  0.47528000  0.81270000  1.0
  C  C15  1  0.64920000  0.48797000  0.88111000  1.0
  C  C16  1  0.92760000  0.05650000  0.68759000  1.0
  C  C17  1  0.74540000  0.02472000  0.68730000  1.0
  C  C18  1  0.64920000  0.01203000  0.61889000  1.0
  C  C19  1  0.92760000  0.81241000  0.05650000  1.0
  C  C20  1  0.74540000  0.81270000  0.02472000  1.0
  C  C21  1  0.64920000  0.88111000  0.01203000  1.0
  C  C22  1  0.92760000  0.68759000  0.44350000  1.0
  C  C23  1  0.74540000  0.68730000  0.47528000  1.0
  C  C24  1  0.64920000  0.61889000  0.48797000  1.0
  C  C25  1  0.92760000  0.44350000  0.68759000  1.0
  C  C26  1  0.74540000  0.47528000  0.68730000  1.0
  C  C27  1  0.64920000  0.48797000  0.61889000  1.0
  C  C28  1  0.92760000  0.05650000  0.81241000  1.0
  C  C29  1  0.74540000  0.02472000  0.81270000  1.0
  C  C30  1  0.64920000  0.01203000  0.88111000  1.0
  C  C31  1  0.92760000  0.81241000  0.44350000  1.0
  C  C32  1  0.74540000  0.81270000  0.47528000  1.0
  C  C33  1  0.64920000  0.88111000  0.48797000  1.0
  C  C34  1  0.92760000  0.68759000  0.05650000  1.0
  C  C35  1  0.74540000  0.68730000  0.02472000  1.0
  C  C36  1  0.64920000  0.61889000  0.01203000  1.0
  C  C37  1  0.07240000  0.55650000  0.18759000  1.0
  C  C38  1  0.25460000  0.52472000  0.18730000  1.0
  C  C39  1  0.35080000  0.51203000  0.11889000  1.0
  C  C40  1  0.07240000  0.94350000  0.31241000  1.0
  C  C41  1  0.25460000  0.97528000  0.31270000  1.0
  C  C42  1  0.35080000  0.98797000  0.38111000  1.0
  C  C43  1  0.07240000  0.18759000  0.94350000  1.0
  C  C44  1  0.25460000  0.18730000  0.97528000  1.0
  C  C45  1  0.35080000  0.11889000  0.98797000  1.0
  C  C46  1  0.07240000  0.31241000  0.55650000  1.0
  C  C47  1  0.25460000  0.31270000  0.52472000  1.0
  C  C48  1  0.35080000  0.38111000  0.51203000  1.0
  C  C49  1  0.80180000  0.61530000  0.25000000  1.0
  C  C50  1  0.98550000  0.57420000  0.25000000  1.0
  C  C51  1  0.34680000  0.50920000  0.25000000  1.0
  C  C52  1  0.80180000  0.88470000  0.25000000  1.0
  C  C53  1  0.98550000  0.92580000  0.25000000  1.0
  C  C54  1  0.34680000  0.99080000  0.25000000  1.0
  C  C55  1  0.80180000  0.25000000  0.61530000  1.0
  C  C56  1  0.98550000  0.25000000  0.57420000  1.0
  C  C57  1  0.34680000  0.25000000  0.50920000  1.0
  C  C58  1  0.80180000  0.25000000  0.88470000  1.0
  C  C59  1  0.98550000  0.25000000  0.92580000  1.0
  C  C60  1  0.34680000  0.25000000  0.99080000  1.0
  C  C61  1  0.19820000  0.38470000  0.75000000  1.0
  C  C62  1  0.01450000  0.42580000  0.75000000  1.0
  C  C63  1  0.65320000  0.49080000  0.75000000  1.0
  C  C64  1  0.19820000  0.11530000  0.75000000  1.0
  C  C65  1  0.01450000  0.07420000  0.75000000  1.0
  C  C66  1  0.65320000  0.00920000  0.75000000  1.0
  C  C67  1  0.19820000  0.75000000  0.11530000  1.0
  C  C68  1  0.01450000  0.75000000  0.07420000  1.0
  C  C69  1  0.65320000  0.75000000  0.00920000  1.0
  C  C70  1  0.19820000  0.75000000  0.38470000  1.0
  C  C71  1  0.01450000  0.75000000  0.42580000  1.0
  C  C72  1  0.65320000  0.75000000  0.49080000  1.0
  O  O1  1  0.73350000  0.63198000  0.19197000  1.0
  O  O2  1  0.26150000  0.53227000  0.43386000  1.0
  O  O3  1  0.51240000  0.48410000  0.38177000  1.0
  O  O4  1  0.73350000  0.86802000  0.30803000  1.0
  O  O5  1  0.26150000  0.96773000  0.06614000  1.0
  O  O6  1  0.51240000  0.01590000  0.11823000  1.0
  O  O7  1  0.73350000  0.30803000  0.63198000  1.0
  O  O8  1  0.26150000  0.06614000  0.53227000  1.0
  O  O9  1  0.51240000  0.11823000  0.48410000  1.0
  O  O10  1  0.73350000  0.19197000  0.86802000  1.0
  O  O11  1  0.26150000  0.43386000  0.96773000  1.0
  O  O12  1  0.51240000  0.38177000  0.01590000  1.0
  O  O13  1  0.26650000  0.36802000  0.69197000  1.0
  O  O14  1  0.73850000  0.46773000  0.93386000  1.0
  O  O15  1  0.48760000  0.51590000  0.88177000  1.0
  O  O16  1  0.26650000  0.13198000  0.80803000  1.0
  O  O17  1  0.73850000  0.03227000  0.56614000  1.0
  O  O18  1  0.48760000  0.98410000  0.61823000  1.0
  O  O19  1  0.26650000  0.69197000  0.13198000  1.0
  O  O20  1  0.73850000  0.93386000  0.03227000  1.0
  O  O21  1  0.48760000  0.88177000  0.98410000  1.0
  O  O22  1  0.26650000  0.80803000  0.36802000  1.0
  O  O23  1  0.73850000  0.56614000  0.46773000  1.0
  O  O24  1  0.48760000  0.61823000  0.51590000  1.0
  O  O25  1  0.26650000  0.36802000  0.80803000  1.0
  O  O26  1  0.73850000  0.46773000  0.56614000  1.0
  O  O27  1  0.48760000  0.51590000  0.61823000  1.0
  O  O28  1  0.26650000  0.13198000  0.69197000  1.0
  O  O29  1  0.73850000  0.03227000  0.93386000  1.0
  O  O30  1  0.48760000  0.98410000  0.88177000  1.0
  O  O31  1  0.26650000  0.69197000  0.36802000  1.0
  O  O32  1  0.73850000  0.93386000  0.46773000  1.0
  O  O33  1  0.48760000  0.88177000  0.51590000  1.0
  O  O34  1  0.26650000  0.80803000  0.13198000  1.0
  O  O35  1  0.73850000  0.56614000  0.03227000  1.0
  O  O36  1  0.48760000  0.61823000  0.98410000  1.0
  O  O37  1  0.73350000  0.63198000  0.30803000  1.0
  O  O38  1  0.26150000  0.53227000  0.06614000  1.0
  O  O39  1  0.51240000  0.48410000  0.11823000  1.0
  O  O40  1  0.73350000  0.86802000  0.19197000  1.0
  O  O41  1  0.26150000  0.96773000  0.43386000  1.0
  O  O42  1  0.51240000  0.01590000  0.38177000  1.0
  O  O43  1  0.73350000  0.30803000  0.86802000  1.0
  O  O44  1  0.26150000  0.06614000  0.96773000  1.0
  O  O45  1  0.51240000  0.11823000  0.01590000  1.0
  O  O46  1  0.73350000  0.19197000  0.63198000  1.0
  O  O47  1  0.26150000  0.43386000  0.53227000  1.0
  O  O48  1  0.51240000  0.38177000  0.48410000  1.0
  O  O49  1  0.08600000  0.57098000  0.57098000  1.0
  O  O50  1  0.08600000  0.92902000  0.92902000  1.0
  O  O51  1  0.08600000  0.92902000  0.57098000  1.0
  O  O52  1  0.08600000  0.57098000  0.92902000  1.0
  O  O53  1  0.91400000  0.42902000  0.07098000  1.0
  O  O54  1  0.91400000  0.07098000  0.42902000  1.0
  O  O55  1  0.91400000  0.07098000  0.07098000  1.0
  O  O56  1  0.91400000  0.42902000  0.42902000  1.0
