# generated using pymatgen
data_CuH3(C2O)4
_symmetry_space_group_name_H-M   'P 1'
_cell_length_a   13.48070000
_cell_length_b   13.48070000
_cell_length_c   13.48070000
_cell_angle_alpha   86.55300000
_cell_angle_beta   86.55300000
_cell_angle_gamma   86.55300000
_symmetry_Int_Tables_number   1
_chemical_formula_structural   CuH3(C2O)4
_chemical_formula_sum   'Cu6 H18 C48 O24'
_cell_volume   2437.05252879
_cell_formula_units_Z   6
loop_
 _symmetry_equiv_pos_site_id
 _symmetry_equiv_pos_as_xyz
  1  'x, y, z'
loop_
 _atom_site_type_symbol
 _atom_site_label
 _atom_site_symmetry_multiplicity
 _atom_site_fract_x
 _atom_site_fract_y
 _atom_site_fract_z
 _atom_site_occupancy
  Cu  Cu1  1  0.38854000  0.96050000  0.38854000  1.0
  Cu  Cu2  1  0.96050000  0.96050000  0.81658000  1.0
  Cu  Cu3  1  0.96050000  0.38854000  0.38854000  1.0
  Cu  Cu4  1  0.00000000  0.57196000  0.42804000  1.0
  Cu  Cu5  1  0.00000000  0.00000000  0.00000000  1.0
  Cu  Cu6  1  0.57196000  1.00000000  0.42804000  1.0
  H  H1  1  0.53875000  0.98035000  0.74849000  1.0
  H  H2  1  0.98035000  0.32045000  0.96679000  1.0
  H  H3  1  0.32045000  0.53875000  0.40839000  1.0
  H  H4  1  0.98015000  0.42175000  0.06809000  1.0
  H  H5  1  0.64005000  0.98015000  0.84979000  1.0
  H  H6  1  0.42175000  0.64005000  0.40819000  1.0
  H  H7  1  0.42175000  0.98015000  0.06809000  1.0
  H  H8  1  0.98015000  0.64005000  0.84979000  1.0
  H  H9  1  0.64005000  0.42175000  0.40819000  1.0
  H  H10  1  0.98035000  0.53875000  0.74849000  1.0
  H  H11  1  0.32045000  0.98035000  0.96679000  1.0
  H  H12  1  0.53875000  0.32045000  0.40839000  1.0
  H  H13  1  0.25245000  0.96445000  0.68049000  1.0
  H  H14  1  0.96445000  0.25245000  0.68049000  1.0
  H  H15  1  0.25245000  0.25245000  0.39249000  1.0
  H  H16  1  0.99605000  0.70805000  0.13609000  1.0
  H  H17  1  0.70805000  0.99605000  0.13609000  1.0
  H  H18  1  0.70805000  0.70805000  0.42409000  1.0
  C  C1  1  0.43190000  0.97291000  0.59074000  1.0
  C  C2  1  0.47029000  0.97803000  0.76923000  1.0
  C  C3  1  0.40056000  0.97308000  0.69874000  1.0
  C  C4  1  0.97291000  0.16270000  0.85994000  1.0
  C  C5  1  0.97803000  0.34119000  0.89833000  1.0
  C  C6  1  0.97308000  0.27070000  0.82860000  1.0
  C  C7  1  0.16270000  0.43190000  0.40095000  1.0
  C  C8  1  0.34119000  0.47029000  0.40607000  1.0
  C  C9  1  0.27070000  0.40056000  0.40112000  1.0
  C  C10  1  0.98759000  0.52860000  0.22584000  1.0
  C  C11  1  0.98247000  0.49021000  0.04735000  1.0
  C  C12  1  0.98742000  0.55994000  0.11784000  1.0
  C  C13  1  0.79780000  0.98759000  0.95664000  1.0
  C  C14  1  0.61931000  0.98247000  0.91825000  1.0
  C  C15  1  0.68980000  0.98742000  0.98798000  1.0
  C  C16  1  0.52860000  0.79780000  0.41563000  1.0
  C  C17  1  0.49021000  0.61931000  0.41051000  1.0
  C  C18  1  0.55994000  0.68980000  0.41546000  1.0
  C  C19  1  0.52860000  0.98759000  0.22584000  1.0
  C  C20  1  0.49021000  0.98247000  0.04735000  1.0
  C  C21  1  0.55994000  0.98742000  0.11784000  1.0
  C  C22  1  0.98759000  0.79780000  0.95664000  1.0
  C  C23  1  0.98247000  0.61931000  0.91825000  1.0
  C  C24  1  0.98742000  0.68980000  0.98798000  1.0
  C  C25  1  0.79780000  0.52860000  0.41563000  1.0
  C  C26  1  0.61931000  0.49021000  0.41051000  1.0
  C  C27  1  0.68980000  0.55994000  0.41546000  1.0
  C  C28  1  0.97291000  0.43190000  0.59074000  1.0
  C  C29  1  0.97803000  0.47029000  0.76923000  1.0
  C  C30  1  0.97308000  0.40056000  0.69874000  1.0
  C  C31  1  0.16270000  0.97291000  0.85994000  1.0
  C  C32  1  0.34119000  0.97803000  0.89833000  1.0
  C  C33  1  0.27070000  0.97308000  0.82860000  1.0
  C  C34  1  0.43190000  0.16270000  0.40095000  1.0
  C  C35  1  0.47029000  0.34119000  0.40607000  1.0
  C  C36  1  0.40056000  0.27070000  0.40112000  1.0
  C  C37  1  0.44169000  0.97969000  0.86973000  1.0
  C  C38  1  0.30042000  0.96937000  0.72846000  1.0
  C  C39  1  0.97969000  0.44169000  0.86973000  1.0
  C  C40  1  0.96937000  0.30042000  0.72846000  1.0
  C  C41  1  0.44169000  0.44169000  0.40773000  1.0
  C  C42  1  0.30042000  0.30042000  0.39741000  1.0
  C  C43  1  0.98081000  0.51881000  0.94685000  1.0
  C  C44  1  0.99113000  0.66008000  0.08812000  1.0
  C  C45  1  0.51881000  0.98081000  0.94685000  1.0
  C  C46  1  0.66008000  0.99113000  0.08812000  1.0
  C  C47  1  0.51881000  0.51881000  0.40885000  1.0
  C  C48  1  0.66008000  0.66008000  0.41917000  1.0
  O  O1  1  0.36623000  0.95723000  0.53250000  1.0
  O  O2  1  0.52090000  0.99015000  0.56679000  1.0
  O  O3  1  0.95723000  0.10446000  0.79427000  1.0
  O  O4  1  0.99015000  0.13875000  0.94894000  1.0
  O  O5  1  0.10446000  0.36623000  0.38527000  1.0
  O  O6  1  0.13875000  0.52090000  0.41819000  1.0
  O  O7  1  0.00327000  0.59427000  0.28408000  1.0
  O  O8  1  0.97035000  0.43960000  0.24979000  1.0
  O  O9  1  0.85604000  0.00327000  0.02231000  1.0
  O  O10  1  0.82175000  0.97035000  0.86764000  1.0
  O  O11  1  0.59427000  0.85604000  0.43131000  1.0
  O  O12  1  0.43960000  0.82175000  0.39839000  1.0
  O  O13  1  0.59427000  0.00327000  0.28408000  1.0
  O  O14  1  0.43960000  0.97035000  0.24979000  1.0
  O  O15  1  0.00327000  0.85604000  0.02231000  1.0
  O  O16  1  0.97035000  0.82175000  0.86764000  1.0
  O  O17  1  0.85604000  0.59427000  0.43131000  1.0
  O  O18  1  0.82175000  0.43960000  0.39839000  1.0
  O  O19  1  0.95723000  0.36623000  0.53250000  1.0
  O  O20  1  0.99015000  0.52090000  0.56679000  1.0
  O  O21  1  0.10446000  0.95723000  0.79427000  1.0
  O  O22  1  0.13875000  0.99015000  0.94894000  1.0
  O  O23  1  0.36623000  0.10446000  0.38527000  1.0
  O  O24  1  0.52090000  0.13875000  0.41819000  1.0
