# generated using pymatgen
data_Zn4H12C24O13
_symmetry_space_group_name_H-M   'P 1'
_cell_length_a   18.44770881
_cell_length_b   18.44770881
_cell_length_c   18.44770881
_cell_angle_alpha   60.00000000
_cell_angle_beta   60.00000000
_cell_angle_gamma   60.00000000
_symmetry_Int_Tables_number   1
_chemical_formula_structural   Zn4H12C24O13
_chemical_formula_sum   'Zn8 H24 C48 O26'
_cell_volume   4439.27763574
_cell_formula_units_Z   2
loop_
 _symmetry_equiv_pos_site_id
 _symmetry_equiv_pos_as_xyz
  1  'x, y, z'
loop_
 _atom_site_type_symbol
 _atom_site_label
 _atom_site_symmetry_multiplicity
 _atom_site_fract_x
 _atom_site_fract_y
 _atom_site_fract_z
 _atom_site_occupancy
  C  C128  1  0.61102000  0.88897000  0.61102000  1.0
  C  C129  1  0.38897000  0.11102000  0.38897000  1.0
  C  C130  1  0.88897500  0.61101500  0.88897500  1.0
  C  C131  1  0.11102000  0.38897000  0.11102000  1.0
  C  C136  1  0.88897000  0.61102000  0.61102000  1.0
  C  C137  1  0.11101500  0.38897500  0.38897500  1.0
  C  C138  1  0.61101750  0.88897250  0.88897250  1.0
  C  C139  1  0.38897000  0.11102000  0.11102000  1.0
  C  C144  1  0.61101500  0.61101500  0.88897500  1.0
  C  C145  1  0.38897000  0.38897000  0.11102000  1.0
  C  C146  1  0.88897000  0.88897000  0.61102000  1.0
  C  C147  1  0.11101750  0.11101750  0.38897250  1.0
  C  C176  1  0.55367500  0.94631500  0.55367500  1.0
  C  C177  1  0.44631000  0.05368000  0.44632000  1.0
  C  C178  1  0.94631500  0.55367500  0.94631500  1.0
  C  C179  1  0.05367500  0.44631500  0.05367500  1.0
  C  C184  1  0.94631500  0.55367500  0.55367500  1.0
  C  C185  1  0.05367500  0.44631500  0.44631500  1.0
  C  C186  1  0.55367500  0.94631500  0.94631500  1.0
  C  C187  1  0.44631500  0.05367500  0.05367500  1.0
  C  C192  1  0.55367500  0.55367500  0.94631500  1.0
  C  C193  1  0.44631500  0.44631500  0.05367500  1.0
  C  C194  1  0.94631250  0.94631750  0.55367750  1.0
  C  C195  1  0.05367500  0.05367500  0.44631500  1.0
  C  C224  1  0.46081250  0.97331750  0.59253750  1.0
  C  C225  1  0.53917500  0.02667500  0.40745500  1.0
  C  C226  1  0.97330500  0.59253500  0.97332500  1.0
  C  C227  1  0.02667750  0.40745250  0.02667250  1.0
  C  C228  1  0.59253250  0.97331750  0.46081750  1.0
  C  C229  1  0.40745250  0.02667750  0.53917750  1.0
  C  C230  1  0.97330500  0.46081500  0.97332500  1.0
  C  C231  1  0.02667500  0.53918000  0.02667500  1.0
  C  C232  1  0.97331250  0.59253750  0.46081250  1.0
  C  C233  1  0.02667500  0.40745500  0.53918000  1.0
  C  C234  1  0.59253750  0.97331750  0.97331750  1.0
  C  C235  1  0.40744750  0.02667250  0.02667750  1.0
  C  C236  1  0.97331500  0.46081500  0.59253500  1.0
  C  C237  1  0.02667500  0.53918000  0.40745500  1.0
  C  C238  1  0.46081000  0.97331500  0.97332000  1.0
  C  C239  1  0.53917500  0.02667000  0.02668000  1.0
  C  C240  1  0.59253000  0.46081500  0.97332500  1.0
  C  C241  1  0.40745250  0.53917750  0.02667750  1.0
  C  C242  1  0.97331500  0.97331500  0.59254000  1.0
  C  C243  1  0.02666500  0.02668000  0.40746000  1.0
  C  C244  1  0.46081500  0.59253500  0.97332000  1.0
  C  C245  1  0.53917750  0.40745250  0.02667250  1.0
  C  C246  1  0.97332000  0.97331000  0.46081500  1.0
  C  C247  1  0.02667000  0.02668000  0.53918000  1.0
  H  H32  1  0.43179500  0.95184500  0.66450000  1.0
  H  H33  1  0.56819000  0.04814500  0.33550000  1.0
  H  H34  1  0.95184000  0.66449500  0.95185000  1.0
  H  H35  1  0.04814000  0.33549500  0.04815500  1.0
  H  H36  1  0.66449250  0.95184250  0.43180250  1.0
  H  H37  1  0.33549250  0.04815250  0.56819250  1.0
  H  H38  1  0.95184250  0.43179250  0.95184750  1.0
  H  H39  1  0.04814000  0.56819500  0.04815000  1.0
  H  H40  1  0.95184250  0.66449750  0.43179750  1.0
  H  H41  1  0.04814500  0.33549500  0.56820000  1.0
  H  H42  1  0.66450000  0.95184500  0.95184500  1.0
  H  H43  1  0.33549250  0.04814250  0.04815250  1.0
  H  H44  1  0.95184000  0.43179500  0.66450000  1.0
  H  H45  1  0.04813750  0.56819750  0.33550250  1.0
  H  H46  1  0.43179000  0.95185000  0.95185000  1.0
  H  H47  1  0.56819250  0.04814750  0.04814750  1.0
  H  H48  1  0.66449500  0.43180000  0.95184000  1.0
  H  H49  1  0.33549250  0.56819250  0.04815250  1.0
  H  H50  1  0.95183750  0.95184750  0.66449750  1.0
  H  H51  1  0.04814500  0.04815000  0.33549500  1.0
  H  H52  1  0.43179250  0.66449250  0.95185250  1.0
  H  H53  1  0.56819000  0.33549500  0.04815000  1.0
  H  H54  1  0.95184000  0.95184500  0.43180000  1.0
  H  H55  1  0.04814250  0.04814250  0.56820250  1.0
  O  O320  1  0.74999500  0.74999500  0.74999500  1.0
  O  O321  1  0.24999500  0.24999500  0.24999500  1.0
  O  O328  1  0.57118500  0.86687000  0.69505500  1.0
  O  O329  1  0.42880500  0.13312000  0.30493500  1.0
  O  O330  1  0.86687000  0.69505500  0.86687000  1.0
  O  O331  1  0.13312000  0.30493500  0.13312000  1.0
  O  O332  1  0.69505250  0.86686750  0.57118750  1.0
  O  O333  1  0.30493250  0.13312250  0.42880750  1.0
  O  O334  1  0.86686750  0.57118250  0.86687250  1.0
  O  O335  1  0.13311750  0.42880750  0.13312250  1.0
  O  O336  1  0.86686750  0.69505250  0.57118750  1.0
  O  O337  1  0.13311750  0.30493750  0.42880750  1.0
  O  O338  1  0.69505250  0.86687250  0.86687250  1.0
  O  O339  1  0.30493500  0.13312000  0.13312000  1.0
  O  O340  1  0.86687000  0.57118500  0.69505500  1.0
  O  O341  1  0.13312000  0.42880500  0.30494000  1.0
  O  O342  1  0.57118000  0.86687000  0.86687500  1.0
  O  O343  1  0.42880750  0.13311750  0.13312250  1.0
  O  O344  1  0.69505500  0.57118500  0.86687000  1.0
  O  O345  1  0.30493500  0.42880500  0.13312000  1.0
  O  O346  1  0.86687250  0.86686750  0.69505750  1.0
  O  O347  1  0.13312000  0.13312000  0.30493500  1.0
  O  O348  1  0.57118000  0.69505500  0.86687500  1.0
  O  O349  1  0.42880500  0.30493500  0.13312000  1.0
  O  O350  1  0.86687000  0.86687000  0.57118500  1.0
  O  O351  1  0.13311500  0.13312000  0.42881000  1.0
  Zn  Zn0  1  0.61994750  0.79334250  0.79334750  1.0
  Zn  Zn1  1  0.38004000  0.20665000  0.20664500  1.0
  Zn  Zn2  1  0.79334250  0.79334750  0.79334750  1.0
  Zn  Zn3  1  0.20664000  0.20664500  0.20665000  1.0
  Zn  Zn4  1  0.79334250  0.79334750  0.61994750  1.0
  Zn  Zn5  1  0.20664500  0.20664500  0.38004500  1.0
  Zn  Zn6  1  0.79334500  0.61994500  0.79334500  1.0
  Zn  Zn7  1  0.20664250  0.38004250  0.20665250  1.0
