# generated using pymatgen
data_CeH50C78(NO6)2
_symmetry_space_group_name_H-M   'P 1'
_cell_length_a   10.42068000
_cell_length_b   10.41973000
_cell_length_c   36.49815000
_cell_angle_alpha   89.99776000
_cell_angle_beta   89.98988000
_cell_angle_gamma   77.27524000
_symmetry_Int_Tables_number   1
_chemical_formula_structural   CeH50C78(NO6)2
_chemical_formula_sum   'Ce2 H100 C156 N4 O24'
_cell_volume   3865.66028133
_cell_formula_units_Z   2
loop_
 _symmetry_equiv_pos_site_id
 _symmetry_equiv_pos_as_xyz
  1  'x, y, z'
loop_
 _atom_site_type_symbol
 _atom_site_label
 _atom_site_symmetry_multiplicity
 _atom_site_fract_x
 _atom_site_fract_y
 _atom_site_fract_z
 _atom_site_occupancy
  Ce  Ce0  1  0.36179000  0.63754000  0.00020000  1
  Ce  Ce1  1  0.86047000  0.13831000  0.50009000  1
  H  H2  1  0.47204000  0.92533000  0.79558000  1
  H  H3  1  0.55495000  0.97773000  0.60483000  1
  H  H4  1  0.21763000  0.30664000  0.81489000  1
  H  H5  1  0.83318000  0.07351000  0.63925000  1
  H  H6  1  0.35988000  0.85441000  0.83122000  1
  H  H7  1  0.56057000  0.01249000  0.74105000  1
  H  H8  1  0.25570000  0.28758000  0.69450000  1
  H  H9  1  0.35124000  0.92042000  0.71101000  1
  H  H10  1  0.90769000  0.84885000  0.61159000  1
  H  H11  1  0.31081000  0.39431000  0.76124000  1
  H  H12  1  0.94028000  0.14594000  0.75029000  1
  H  H13  1  0.30732000  0.77399000  0.89190000  1
  H  H14  1  0.00299000  0.16382000  0.62848000  1
  H  H15  1  0.11937000  0.97956000  0.73285000  1
  H  H16  1  0.13488000  0.46699000  0.65499000  1
  H  H17  1  0.59836000  0.16698000  0.65406000  1
  H  H18  1  0.23173000  0.10380000  0.60703000  1
  H  H19  1  0.70506000  0.22638000  0.76568000  1
  H  H20  1  0.59573000  0.45970000  0.69088000  1
  H  H21  1  0.21820000  0.25364000  0.86816000  1
  H  H22  1  0.03451000  0.68213000  0.65395000  1
  H  H23  1  0.15545000  0.16999000  0.92769000  1
  H  H24  1  0.26275000  0.86894000  0.55443000  1
  H  H25  1  0.38912000  0.69000000  0.59386000  1
  H  H26  1  0.47498000  0.63933000  0.65209000  1
  H  H27  1  0.07475000  0.52793000  0.20439000  1
  H  H28  1  0.02223000  0.44497000  0.39517000  1
  H  H29  1  0.69346000  0.78230000  0.18507000  1
  H  H30  1  0.92649000  0.16682000  0.36074000  1
  H  H31  1  0.14570000  0.64019000  0.16873000  1
  H  H32  1  0.98763000  0.43951000  0.25894000  1
  H  H33  1  0.71230000  0.74438000  0.30549000  1
  H  H34  1  0.07963000  0.64864000  0.28899000  1
  H  H35  1  0.15100000  0.09262000  0.38844000  1
  H  H36  1  0.60584000  0.68919000  0.23874000  1
  H  H37  1  0.85415000  0.05960000  0.24971000  1
  H  H38  1  0.22596000  0.69323000  0.10811000  1
  H  H39  1  0.83629000  0.99702000  0.37154000  1
  H  H40  1  0.02050000  0.88055000  0.26715000  1
  H  H41  1  0.53292000  0.86527000  0.34497000  1
  H  H42  1  0.83305000  0.40166000  0.34594000  1
  H  H43  1  0.89630000  0.76829000  0.39298000  1
  H  H44  1  0.77377000  0.29483000  0.23431000  1
  H  H45  1  0.54032000  0.40431000  0.30909000  1
  H  H46  1  0.74632000  0.78181000  0.13183000  1
  H  H47  1  0.31770000  0.96580000  0.34611000  1
  H  H48  1  0.83018000  0.84514000  0.07235000  1
  H  H49  1  0.13100000  0.73755000  0.44562000  1
  H  H50  1  0.30998000  0.61113000  0.40625000  1
  H  H51  1  0.36066000  0.52503000  0.34787000  1
  H  H52  1  0.57462000  0.02704000  0.29561000  1
  H  H53  1  0.52227000  0.94493000  0.10480000  1
  H  H54  1  0.19364000  0.28158000  0.31512000  1
  H  H55  1  0.42602000  0.66681000  0.13924000  1
  H  H56  1  0.64576000  0.13969000  0.33095000  1
  H  H57  1  0.48737000  0.93919000  0.24098000  1
  H  H58  1  0.21281000  0.24432000  0.19445000  1
  H  H59  1  0.57961000  0.14861000  0.21099000  1
  H  H60  1  0.65191000  0.59545000  0.11258000  1
  H  H61  1  0.10572000  0.18906000  0.26138000  1
  H  H62  1  0.35432000  0.55960000  0.25032000  1
  H  H63  1  0.72694000  0.19520000  0.39134000  1
  H  H64  1  0.33584000  0.49690000  0.12851000  1
  H  H65  1  0.52050000  0.38051000  0.23283000  1
  H  H66  1  0.03346000  0.36576000  0.15506000  1
  H  H67  1  0.33272000  0.90165000  0.15408000  1
  H  H68  1  0.39585000  0.26810000  0.10707000  1
  H  H69  1  0.27385000  0.79475000  0.26573000  1
  H  H70  1  0.03995000  0.90473000  0.19069000  1
  H  H71  1  0.24689000  0.27963000  0.36841000  1
  H  H72  1  0.81842000  0.46644000  0.15472000  1
  H  H73  1  0.33176000  0.34531000  0.42760000  1
  H  H74  1  0.62983000  0.24275000  0.05465000  1
  H  H75  1  0.80823000  0.11384000  0.09386000  1
  H  H76  1  0.86046000  0.02607000  0.15199000  1
  H  H77  1  0.97297000  0.42540000  0.70436000  1
  H  H78  1  0.05497000  0.47778000  0.89521000  1
  H  H79  1  0.71842000  0.80647000  0.68490000  1
  H  H80  1  0.33317000  0.57391000  0.86077000  1
  H  H81  1  0.85994000  0.35423000  0.66907000  1
  H  H82  1  0.06080000  0.51265000  0.75899000  1
  H  H83  1  0.75584000  0.78707000  0.80557000  1
  H  H84  1  0.85136000  0.42040000  0.78900000  1
  H  H85  1  0.40433000  0.34746000  0.88738000  1
  H  H86  1  0.81097000  0.89435000  0.73865000  1
  H  H87  1  0.44039000  0.64576000  0.74970000  1
  H  H88  1  0.80507000  0.27290000  0.60865000  1
  H  H89  1  0.50313000  0.66411000  0.87151000  1
  H  H90  1  0.61951000  0.47954000  0.76717000  1
  H  H91  1  0.63442000  0.96660000  0.84494000  1
  H  H92  1  0.09838000  0.66723000  0.84594000  1
  H  H93  1  0.73189000  0.60409000  0.89294000  1
  H  H94  1  0.20526000  0.72623000  0.73429000  1
  H  H95  1  0.09537000  0.96003000  0.80933000  1
  H  H96  1  0.71991000  0.75300000  0.63155000  1
  H  H97  1  0.53385000  0.18169000  0.84518000  1
  H  H98  1  0.65489000  0.66806000  0.57234000  1
  H  H99  1  0.75687000  0.36965000  0.94547000  1
  H  H100  1  0.88592000  0.19199000  0.90606000  1
  H  H101  1  0.97395000  0.13965000  0.84800000  1
  C  C102  1  0.44404000  0.21000000  0.74787000  1
  C  C103  1  0.43493000  0.02798000  0.78831000  1
  C  C104  1  0.29448000  0.56827000  0.65087000  1
  C  C105  1  0.33946000  0.10953000  0.81050000  1
  C  C106  1  0.29362000  0.24142000  0.79924000  1
  C  C107  1  0.29641000  0.06097000  0.84518000  1
  C  C108  1  0.80566000  0.11096000  0.66666667  1
  C  C109  1  0.30599000  0.00763000  0.65773000  1
  C  C110  1  0.31897000  0.92493000  0.85238000  1
  C  C111  1  0.07716000  0.87064000  0.58057000  1
  C  C112  1  0.23044000  0.96663000  0.91365000  1
  C  C113  1  0.63782000  0.20568000  0.71038000  1
  C  C114  1  0.04368000  0.07372000  0.68194000  1
  C  C115  1  0.48657000  0.07664000  0.75766000  1
  C  C116  1  0.30198000  0.36648000  0.68577000  1
  C  C117  1  0.27361000  0.97374000  0.69332000  1
  C  C118  1  0.43292000  0.36307000  0.69591000  1
  C  C119  1  0.01349000  0.81541000  0.60836000  1
  C  C120  1  0.34448000  0.29130000  0.76863000  1
  C  C121  1  0.86615000  0.14800000  0.72915000  1
  C  C122  1  0.28807000  0.87884000  0.88617000  1
  C  C123  1  0.07813000  0.10911000  0.64664000  1
  C  C124  1  0.44304000  0.96638000  0.64520000  1
  C  C125  1  0.14405000  0.00749000  0.70544000  1
  C  C126  1  0.23456000  0.46777000  0.66368000  1
  C  C127  1  0.67416000  0.16132000  0.67484000  1
  C  C128  1  0.20744000  0.07694000  0.63454000  1
  C  C129  1  0.73405000  0.19496000  0.73788000  1
  C  C130  1  0.22129000  0.67384000  0.62709000  1
  C  C131  1  0.49443000  0.46195000  0.68322000  1
  C  C132  1  0.23665000  0.14838000  0.87297000  1
  C  C133  1  0.08465000  0.72030000  0.63169000  1
  C  C134  1  0.20182000  0.10216000  0.90643000  1
  C  C135  1  0.90462000  0.10864000  0.69310000  1
  C  C136  1  0.21374000  0.82661000  0.57616000  1
  C  C137  1  0.28458000  0.72828000  0.59877000  1
  C  C138  1  0.19614000  0.91379000  0.94958000  1
  C  C139  1  0.42611000  0.56264000  0.66103000  1
  C  C140  1  0.00015000  0.97571000  0.55645000  1
  C  C141  1  0.79008000  0.55594000  0.25210000  1
  C  C142  1  0.97209000  0.56505000  0.21166000  1
  C  C143  1  0.43160000  0.70567000  0.34912000  1
  C  C144  1  0.89055000  0.66048000  0.18947000  1
  C  C145  1  0.75868000  0.70633000  0.20073000  1
  C  C146  1  0.93905000  0.70347000  0.15480000  1
  C  C147  1  0.88906000  0.19435000  0.33333333  1
  C  C148  1  0.99243000  0.69397000  0.34228000  1
  C  C149  1  0.07507000  0.68114000  0.14760000  1
  C  C150  1  0.12912000  0.92300000  0.41941000  1
  C  C151  1  0.03335000  0.77020000  0.08640000  1
  C  C152  1  0.79439000  0.36220000  0.28961000  1
  C  C153  1  0.92632000  0.95627000  0.31806000  1
  C  C154  1  0.92344000  0.51341000  0.24232000  1
  C  C155  1  0.63343000  0.69809000  0.31422000  1
  C  C156  1  0.02631000  0.72631000  0.30668000  1
  C  C157  1  0.63692000  0.56714000  0.30407000  1
  C  C158  1  0.18441000  0.98678000  0.39167000  1
  C  C159  1  0.70882000  0.65544000  0.23133000  1
  C  C160  1  0.85208000  0.13378000  0.27085000  1
  C  C161  1  0.12112000  0.71246000  0.11385000  1
  C  C162  1  0.89096000  0.92186000  0.35337000  1
  C  C163  1  0.03368000  0.55694000  0.35481000  1
  C  C164  1  0.99256000  0.85586000  0.29457000  1
  C  C165  1  0.53211000  0.76557000  0.33630000  1
  C  C166  1  0.83873000  0.32587000  0.32515000  1
  C  C167  1  0.92313000  0.79255000  0.36548000  1
  C  C168  1  0.80514000  0.26590000  0.26212000  1
  C  C169  1  0.32608000  0.77893000  0.37295000  1
  C  C170  1  0.53805000  0.50563000  0.31676000  1
  C  C171  1  0.85161000  0.76346000  0.12704000  1
  C  C172  1  0.27955000  0.91560000  0.36836000  1
  C  C173  1  0.89786000  0.79875000  0.09364000  1
  C  C174  1  0.89141000  0.09535000  0.30689000  1
  C  C175  1  0.17331000  0.78648000  0.42388000  1
  C  C176  1  0.27168000  0.71563000  0.40127000  1
  C  C177  1  0.08602000  0.80419000  0.05043000  1
  C  C178  1  0.43730000  0.57399000  0.33894000  1
  C  C179  1  0.02398000  0.99969000  0.44353000  1
  C  C180  1  0.28985000  0.05575000  0.24790000  1
  C  C181  1  0.47199000  0.06424000  0.28833000  1
  C  C182  1  0.93162000  0.20658000  0.15098000  1
  C  C183  1  0.39060000  0.15957000  0.31058000  1
  C  C184  1  0.25869000  0.20564000  0.29940000  1
  C  C185  1  0.43945000  0.20261000  0.34519000  1
  C  C186  1  0.38863000  0.69431000  0.16664000  1
  C  C187  1  0.49221000  0.19391000  0.15773000  1
  C  C188  1  0.57557000  0.18085000  0.35216000  1
  C  C189  1  0.63017000  0.42708000  0.08113000  1
  C  C190  1  0.53443000  0.27228000  0.41307000  1
  C  C191  1  0.29405000  0.86213000  0.21039000  1
  C  C192  1  0.42611000  0.45622000  0.18195000  1
  C  C193  1  0.42321000  0.01298000  0.25765000  1
  C  C194  1  0.13378000  0.19824000  0.18574000  1
  C  C195  1  0.52620000  0.22626000  0.19332000  1
  C  C196  1  0.13694000  0.06731000  0.19586000  1
  C  C197  1  0.68512000  0.48970000  0.10913000  1
  C  C198  1  0.20870000  0.15511000  0.26876000  1
  C  C199  1  0.35203000  0.63376000  0.22917000  1
  C  C200  1  0.62207000  0.21363000  0.38570000  1
  C  C201  1  0.39065000  0.42175000  0.14666000  1
  C  C202  1  0.53354000  0.05684000  0.14520000  1
  C  C203  1  0.49246000  0.35581000  0.20543000  1
  C  C204  1  0.03247000  0.26608000  0.16374000  1
  C  C205  1  0.33833000  0.82580000  0.17485000  1
  C  C206  1  0.42282000  0.29246000  0.13455000  1
  C  C207  1  0.30502000  0.76586000  0.23790000  1
  C  C208  1  0.82581000  0.28066000  0.12742000  1
  C  C209  1  0.03795000  0.00606000  0.18310000  1
  C  C210  1  0.35217000  0.26227000  0.37301000  1
  C  C211  1  0.77982000  0.41726000  0.13234000  1
  C  C212  1  0.39880000  0.29883000  0.40618000  1
  C  C213  1  0.39116000  0.59530000  0.19311000  1
  C  C214  1  0.67296000  0.29047000  0.07650000  1
  C  C215  1  0.77070000  0.21837000  0.09902000  1
  C  C216  1  0.58660000  0.30939000  0.44874000  1
  C  C217  1  0.93720000  0.07479000  0.16099000  1
  C  C218  1  0.52681000  0.50360000  0.05661000  1
  C  C219  1  0.94429000  0.71016000  0.75209000  1
  C  C220  1  0.93572000  0.52804000  0.71164000  1
  C  C221  1  0.79348000  0.06849000  0.84899000  1
  C  C222  1  0.84035000  0.60944000  0.68941000  1
  C  C223  1  0.79433000  0.74135000  0.70062000  1
  C  C224  1  0.79746000  0.56054000  0.65476000  1
  C  C225  1  0.30570000  0.61135000  0.83338000  1
  C  C226  1  0.80609000  0.50775000  0.84227000  1
  C  C227  1  0.81929000  0.42442000  0.64781000  1
  C  C228  1  0.57251000  0.36951000  0.91895000  1
  C  C229  1  0.72837000  0.46514000  0.58680000  1
  C  C230  1  0.13790000  0.70592000  0.78962000  1
  C  C231  1  0.54377000  0.57385000  0.81806000  1
  C  C232  1  0.98700000  0.57680000  0.74233000  1
  C  C233  1  0.80188000  0.86618000  0.81425000  1
  C  C234  1  0.77373000  0.47378000  0.80668000  1
  C  C235  1  0.93281000  0.86302000  0.80414000  1
  C  C236  1  0.51008000  0.31456000  0.89088000  1
  C  C237  1  0.84491000  0.79135000  0.73126000  1
  C  C238  1  0.36626000  0.64802000  0.77085000  1
  C  C239  1  0.78688000  0.37778000  0.61424000  1
  C  C240  1  0.57825000  0.60929000  0.85336000  1
  C  C241  1  0.94312000  0.46650000  0.85480000  1
  C  C242  1  0.64417000  0.50753000  0.79458000  1
  C  C243  1  0.73405000  0.96758000  0.83624000  1
  C  C244  1  0.17422000  0.66164000  0.82516000  1
  C  C245  1  0.70754000  0.57712000  0.86546000  1
  C  C246  1  0.23417000  0.69502000  0.76212000  1
  C  C247  1  0.71929000  0.17422000  0.87257000  1
  C  C248  1  0.99401000  0.96208000  0.81689000  1
  C  C249  1  0.73783000  0.64767000  0.62690000  1
  C  C250  1  0.58274000  0.22009000  0.86764000  1
  C  C251  1  0.70158000  0.60087000  0.59369000  1
  C  C252  1  0.40471000  0.60884000  0.80691000  1
  C  C253  1  0.70912000  0.32676000  0.92358000  1
  C  C254  1  0.78136000  0.22929000  0.90101000  1
  C  C255  1  0.69046000  0.41222000  0.55128000  1
  C  C256  1  0.92527000  0.06289000  0.83899000  1
  C  C257  1  0.49600000  0.47319000  0.94343000  1
  N  N258  1  0.50338000  0.26044000  0.71832000  1
  N  N259  1  0.73962000  0.49666000  0.28167000  1
  N  N260  1  0.23935000  0.99661000  0.21831000  1
  N  N261  1  0.00346000  0.76060000  0.78170000  1
  O  O262  1  0.46268000  0.01291000  0.61110000  1
  O  O263  1  0.05931000  0.05201000  0.53885000  1
  O  O264  1  0.53255000  0.89702000  0.66287000  1
  O  O265  1  0.28585000  0.81782000  0.96317000  1
  O  O266  1  0.08627000  0.96103000  0.96286000  1
  O  O267  1  0.87447000  0.98735000  0.55354000  1
  O  O268  1  0.98710000  0.53725000  0.38890000  1
  O  O269  1  0.94794000  0.94005000  0.46110000  1
  O  O270  1  0.10310000  0.46741000  0.33713000  1
  O  O271  1  0.18151000  0.71379000  0.03682000  1
  O  O272  1  0.03919000  0.91399000  0.03710000  1
  O  O273  1  0.01200000  0.12535000  0.44647000  1
  O  O274  1  0.48709000  0.03721000  0.11109000  1
  O  O275  1  0.45411000  0.44164000  0.03849000  1
  O  O276  1  0.60287000  0.96744000  0.16287000  1
  O  O277  1  0.68924000  0.22575000  0.46131000  1
  O  O278  1  0.53218000  0.41562000  0.46297000  1
  O  O279  1  0.51252000  0.62961000  0.05375000  1
  O  O280  1  0.96272000  0.51293000  0.88891000  1
  O  O281  1  0.55800000  0.54600000  0.96150000  1
  O  O282  1  0.03260000  0.39717000  0.83712000  1
  O  O283  1  0.77296000  0.30784000  0.53894000  1
  O  O284  1  0.58464000  0.46724000  0.53700000  1
  O  O285  1  0.37005000  0.48737000  0.94629000  1
