# generated using pymatgen
data_PrH12(C4O)6
_symmetry_space_group_name_H-M   'P 1'
_cell_length_a   10.44770000
_cell_length_b   11.49450000
_cell_length_c   12.95830000
_cell_angle_alpha   106.63900000
_cell_angle_beta   90.32200000
_cell_angle_gamma   93.19400000
_symmetry_Int_Tables_number   1
_chemical_formula_structural   PrH12(C4O)6
_chemical_formula_sum   'Pr2 H24 C48 O12'
_cell_volume   1488.32120452
_cell_formula_units_Z   2
loop_
 _symmetry_equiv_pos_site_id
 _symmetry_equiv_pos_as_xyz
  1  'x, y, z'
loop_
 _atom_site_type_symbol
 _atom_site_label
 _atom_site_symmetry_multiplicity
 _atom_site_fract_x
 _atom_site_fract_y
 _atom_site_fract_z
 _atom_site_occupancy
  Pr  Pr0  1  0.47424000  0.45386000  0.33549000  1
  Pr  Pr1  1  0.52576000  0.54614000  0.66451000  1
  H  H2  1  0.39730000  0.07570000  0.26000000  1
  H  H3  1  0.27970000  0.79610000  0.55360000  1
  H  H4  1  0.23110000  0.30160000  0.40460000  1
  H  H5  1  0.31470000  0.90250000  0.28900000  1
  H  H6  1  0.09420000  0.89110000  0.58500000  1
  H  H7  1  0.14390000  0.15690000  0.25820000  1
  H  H8  1  0.31100000  0.71790000  0.15300000  1
  H  H9  1  0.08600000  0.09460000  0.58460000  1
  H  H10  1  0.92930000  0.16560000  0.20390000  1
  H  H11  1  0.38900000  0.70970000  0.98640000  1
  H  H12  1  0.26000000  0.19410000  0.53940000  1
  H  H13  1  0.80870000  0.31770000  0.29560000  1
  H  H14  1  0.60270000  0.92430000  0.74000000  1
  H  H15  1  0.72030000  0.20390000  0.44640000  1
  H  H16  1  0.76890000  0.69840000  0.59540000  1
  H  H17  1  0.68530000  0.09750000  0.71100000  1
  H  H18  1  0.90580000  0.10890000  0.41500000  1
  H  H19  1  0.85610000  0.84310000  0.74180000  1
  H  H20  1  0.68900000  0.28210000  0.84700000  1
  H  H21  1  0.91400000  0.90540000  0.41540000  1
  H  H22  1  0.07070000  0.83440000  0.79610000  1
  H  H23  1  0.61100000  0.29030000  0.01360000  1
  H  H24  1  0.74000000  0.80590000  0.46060000  1
  H  H25  1  0.19130000  0.68230000  0.70440000  1
  C  C26  1  0.49340000  0.23160000  0.16590000  1
  C  C27  1  0.51250000  0.74800000  0.50460000  1
  C  C28  1  0.26420000  0.48900000  0.56660000  1
  C  C29  1  0.49820000  0.11330000  0.08210000  1
  C  C30  1  0.50690000  0.87980000  0.50480000  1
  C  C31  1  0.12870000  0.49320000  0.53190000  1
  C  C32  1  0.44740000  0.00530000  0.10120000  1
  C  C33  1  0.39130000  0.93620000  0.52630000  1
  C  C34  1  0.07540000  0.40420000  0.44280000  1
  C  C35  1  0.39630000  0.00360000  0.20440000  1
  C  C36  1  0.27760000  0.87600000  0.55090000  1
  C  C37  1  0.14680000  0.30640000  0.38340000  1
  C  C38  1  0.34730000  0.90030000  0.22190000  1
  C  C39  1  0.16760000  0.93250000  0.57020000  1
  C  C40  1  0.09500000  0.21970000  0.29630000  1
  C  C41  1  0.34490000  0.78850000  0.13950000  1
  C  C42  1  0.16190000  0.05530000  0.56820000  1
  C  C43  1  0.96470000  0.22510000  0.26330000  1
  C  C44  1  0.39210000  0.78360000  0.04000000  1
  C  C45  1  0.26600000  0.11480000  0.54270000  1
  C  C46  1  0.89310000  0.31600000  0.31790000  1
  C  C47  1  0.44670000  0.89160000  0.01720000  1
  C  C48  1  0.38540000  0.05900000  0.52050000  1
  C  C49  1  0.94430000  0.41000000  0.40960000  1
  C  C50  1  0.50660000  0.76840000  0.83410000  1
  C  C51  1  0.48750000  0.25200000  0.49540000  1
  C  C52  1  0.73580000  0.51100000  0.43340000  1
  C  C53  1  0.50180000  0.88670000  0.91790000  1
  C  C54  1  0.49310000  0.12020000  0.49520000  1
  C  C55  1  0.87130000  0.50680000  0.46810000  1
  C  C56  1  0.55260000  0.99470000  0.89880000  1
  C  C57  1  0.60870000  0.06380000  0.47370000  1
  C  C58  1  0.92460000  0.59580000  0.55720000  1
  C  C59  1  0.60370000  0.99640000  0.79560000  1
  C  C60  1  0.72240000  0.12400000  0.44910000  1
  C  C61  1  0.85320000  0.69360000  0.61660000  1
  C  C62  1  0.65270000  0.09970000  0.77810000  1
  C  C63  1  0.83240000  0.06750000  0.42980000  1
  C  C64  1  0.90500000  0.78030000  0.70370000  1
  C  C65  1  0.65510000  0.21150000  0.86050000  1
  C  C66  1  0.83810000  0.94470000  0.43180000  1
  C  C67  1  0.03530000  0.77490000  0.73670000  1
  C  C68  1  0.60790000  0.21640000  0.96000000  1
  C  C69  1  0.73400000  0.88520000  0.45730000  1
  C  C70  1  0.10690000  0.68400000  0.68210000  1
  C  C71  1  0.55330000  0.10840000  0.98280000  1
  C  C72  1  0.61460000  0.94100000  0.47950000  1
  C  C73  1  0.05570000  0.59000000  0.59040000  1
  O  O74  1  0.38540000  0.27750000  0.18460000  1
  O  O75  1  0.48970000  0.67160000  0.41440000  1
  O  O76  1  0.35460000  0.50990000  0.50770000  1
  O  O77  1  0.59510000  0.28380000  0.21380000  1
  O  O78  1  0.53880000  0.72610000  0.59040000  1
  O  O79  1  0.28470000  0.47430000  0.65600000  1
  O  O80  1  0.61460000  0.72250000  0.81540000  1
  O  O81  1  0.51030000  0.32840000  0.58560000  1
  O  O82  1  0.64540000  0.49010000  0.49230000  1
  O  O83  1  0.40490000  0.71620000  0.78620000  1
  O  O84  1  0.46120000  0.27390000  0.40960000  1
  O  O85  1  0.71530000  0.52570000  0.34400000  1
