# generated using pymatgen
data_TiH11C22O5
_symmetry_space_group_name_H-M   'P 1'
_cell_length_a   13.59500000
_cell_length_b   16.12700000
_cell_length_c   30.09900000
_cell_angle_alpha   89.97000000
_cell_angle_beta   89.70000000
_cell_angle_gamma   88.45000000
_symmetry_Int_Tables_number   1
_chemical_formula_structural   TiH11C22O5
_chemical_formula_sum   'Ti8 H88 C176 O40'
_cell_volume   6596.59684525
_cell_formula_units_Z   8
loop_
 _symmetry_equiv_pos_site_id
 _symmetry_equiv_pos_as_xyz
  1  'x, y, z'
loop_
 _atom_site_type_symbol
 _atom_site_label
 _atom_site_symmetry_multiplicity
 _atom_site_fract_x
 _atom_site_fract_y
 _atom_site_fract_z
 _atom_site_occupancy
  Ti  Ti0  1  0.86810000  0.99840000  0.25440000  1
  Ti  Ti1  1  0.63630000  0.00100000  0.74530000  1
  Ti  Ti2  1  0.88600000  0.99780000  0.75500000  1
  Ti  Ti3  1  0.61740000  0.00080000  0.24550000  1
  Ti  Ti4  1  0.36740000  0.00130000  0.25250000  1
  Ti  Ti5  1  0.13640000  0.99870000  0.74430000  1
  Ti  Ti6  1  0.38640000  0.00040000  0.75340000  1
  Ti  Ti7  1  0.11820000  0.99920000  0.24540000  1
  H  H8  1  0.75520000  0.71070000  0.03940000  1
  H  H9  1  0.76520000  0.50100000  0.15300000  1
  H  H10  1  0.74670000  0.70940000  0.95800000  1
  H  H11  1  0.73670000  0.49630000  0.84690000  1
  H  H12  1  0.74450000  0.28700000  0.96060000  1
  H  H13  1  0.75200000  0.28830000  0.04190000  1
  H  H14  1  0.99770000  0.70960000  0.54050000  1
  H  H15  1  0.98490000  0.49880000  0.65290000  1
  H  H16  1  0.00620000  0.70950000  0.45920000  1
  H  H17  1  0.01660000  0.49780000  0.34670000  1
  H  H18  1  0.00000000  0.28720000  0.45900000  1
  H  H19  1  0.99090000  0.28730000  0.54030000  1
  H  H20  1  0.86110000  0.69020000  0.39740000  1
  H  H21  1  0.86170000  0.81910000  0.35120000  1
  H  H22  1  0.65250000  0.63660000  0.35710000  1
  H  H23  1  0.65640000  0.76870000  0.31350000  1
  H  H24  1  0.90840000  0.76440000  0.18780000  1
  H  H25  1  0.61050000  0.82070000  0.14870000  1
  H  H26  1  0.61010000  0.69190000  0.10260000  1
  H  H27  1  0.90690000  0.63310000  0.14370000  1
  H  H28  1  0.90770000  0.18190000  0.15330000  1
  H  H29  1  0.91180000  0.31150000  0.10760000  1
  H  H30  1  0.60810000  0.36440000  0.14090000  1
  H  H31  1  0.60310000  0.23240000  0.18430000  1
  H  H32  1  0.64700000  0.18040000  0.34930000  1
  H  H33  1  0.85660000  0.36130000  0.36200000  1
  H  H34  1  0.85020000  0.22930000  0.31860000  1
  H  H35  1  0.64860000  0.30840000  0.39620000  1
  H  H36  1  0.65370000  0.76870000  0.68100000  1
  H  H37  1  0.84770000  0.82080000  0.65190000  1
  H  H38  1  0.64570000  0.63650000  0.63800000  1
  H  H39  1  0.84060000  0.69130000  0.60640000  1
  H  H40  1  0.84400000  0.36590000  0.64660000  1
  H  H41  1  0.84460000  0.23450000  0.69070000  1
  H  H42  1  0.64290000  0.18280000  0.64780000  1
  H  H43  1  0.64090000  0.31170000  0.60160000  1
  H  H44  1  0.89300000  0.17520000  0.85430000  1
  H  H45  1  0.89200000  0.30590000  0.89900000  1
  H  H46  1  0.59690000  0.23060000  0.81230000  1
  H  H47  1  0.59690000  0.36350000  0.85510000  1
  H  H48  1  0.59620000  0.81740000  0.84620000  1
  H  H49  1  0.89750000  0.75880000  0.81220000  1
  H  H50  1  0.89040000  0.62830000  0.85680000  1
  H  H51  1  0.59050000  0.68950000  0.89320000  1
  H  H52  1  0.25890000  0.71130000  0.03920000  1
  H  H53  1  0.26340000  0.50070000  0.15220000  1
  H  H54  1  0.25210000  0.71090000  0.95790000  1
  H  H55  1  0.23820000  0.49930000  0.84600000  1
  H  H56  1  0.23920000  0.28880000  0.95920000  1
  H  H57  1  0.24680000  0.28930000  0.04050000  1
  H  H58  1  0.49820000  0.71290000  0.54020000  1
  H  H59  1  0.48880000  0.50190000  0.65250000  1
  H  H60  1  0.50240000  0.71310000  0.45870000  1
  H  H61  1  0.50410000  0.50220000  0.34610000  1
  H  H62  1  0.49270000  0.29080000  0.45840000  1
  H  H63  1  0.48850000  0.29070000  0.53990000  1
  H  H64  1  0.35170000  0.69220000  0.39430000  1
  H  H65  1  0.35470000  0.82210000  0.34890000  1
  H  H66  1  0.15700000  0.63020000  0.35410000  1
  H  H67  1  0.15850000  0.76130000  0.30980000  1
  H  H68  1  0.40850000  0.76480000  0.18730000  1
  H  H69  1  0.11150000  0.82250000  0.14740000  1
  H  H70  1  0.11050000  0.69310000  0.10180000  1
  H  H71  1  0.40650000  0.63310000  0.14360000  1
  H  H72  1  0.40170000  0.17760000  0.14880000  1
  H  H73  1  0.40670000  0.30770000  0.10350000  1
  H  H74  1  0.10840000  0.36850000  0.14270000  1
  H  H75  1  0.10220000  0.23620000  0.18570000  1
  H  H76  1  0.15620000  0.17970000  0.34520000  1
  H  H77  1  0.35400000  0.37190000  0.35390000  1
  H  H78  1  0.35080000  0.24110000  0.30950000  1
  H  H79  1  0.16230000  0.30960000  0.39050000  1
  H  H80  1  0.14960000  0.76330000  0.68360000  1
  H  H81  1  0.34910000  0.82220000  0.65290000  1
  H  H82  1  0.14160000  0.63140000  0.64030000  1
  H  H83  1  0.34180000  0.69220000  0.60770000  1
  H  H84  1  0.34360000  0.36710000  0.64450000  1
  H  H85  1  0.34440000  0.23560000  0.68850000  1
  H  H86  1  0.13990000  0.17750000  0.64680000  1
  H  H87  1  0.13840000  0.30670000  0.60090000  1
  H  H88  1  0.39050000  0.17820000  0.85110000  1
  H  H89  1  0.38970000  0.30730000  0.89700000  1
  H  H90  1  0.09390000  0.23500000  0.81010000  1
  H  H91  1  0.09430000  0.36620000  0.85410000  1
  H  H92  1  0.10140000  0.82200000  0.84790000  1
  H  H93  1  0.40170000  0.76240000  0.81280000  1
  H  H94  1  0.39400000  0.63080000  0.85640000  1
  H  H95  1  0.09500000  0.69300000  0.89400000  1
  C  C96  1  0.75970000  0.87770000  0.19740000  1
  C  C97  1  0.75150000  0.65190000  0.02170000  1
  C  C98  1  0.75200000  0.49920000  0.02370000  1
  C  C99  1  0.75780000  0.57610000  0.09400000  1
  C  C100  1  0.75280000  0.57660000  0.04700000  1
  C  C101  1  0.76200000  0.50040000  0.11670000  1
  C  C102  1  0.84320000  0.74730000  0.16940000  1
  C  C103  1  0.84210000  0.67440000  0.14470000  1
  C  C104  1  0.67530000  0.70760000  0.12140000  1
  C  C105  1  0.67520000  0.77950000  0.14700000  1
  C  C106  1  0.75270000  0.87360000  0.80040000  1
  C  C107  1  0.74690000  0.65120000  0.97640000  1
  C  C108  1  0.74720000  0.49850000  0.97620000  1
  C  C109  1  0.73910000  0.57330000  0.90510000  1
  C  C110  1  0.74330000  0.57510000  0.95210000  1
  C  C111  1  0.73900000  0.49700000  0.88310000  1
  C  C112  1  0.74420000  0.11660000  0.80530000  1
  C  C113  1  0.74800000  0.34580000  0.97820000  1
  C  C114  1  0.74350000  0.42140000  0.90590000  1
  C  C115  1  0.74710000  0.42110000  0.95300000  1
  C  C116  1  0.74480000  0.19510000  0.83100000  1
  C  C117  1  0.74430000  0.34310000  0.88010000  1
  C  C118  1  0.74740000  0.79580000  0.82670000  1
  C  C119  1  0.83030000  0.74250000  0.82970000  1
  C  C120  1  0.82620000  0.67010000  0.85470000  1
  C  C121  1  0.74020000  0.65050000  0.87820000  1
  C  C122  1  0.65750000  0.70440000  0.87520000  1
  C  C123  1  0.66040000  0.77580000  0.84920000  1
  C  C124  1  0.75130000  0.12110000  0.19730000  1
  C  C125  1  0.75200000  0.34650000  0.02350000  1
  C  C126  1  0.76070000  0.42430000  0.09470000  1
  C  C127  1  0.75590000  0.42260000  0.04780000  1
  C  C128  1  0.75510000  0.19950000  0.17130000  1
  C  C129  1  0.67060000  0.25080000  0.16780000  1
  C  C130  1  0.67360000  0.32410000  0.14350000  1
  C  C131  1  0.76020000  0.34650000  0.12130000  1
  C  C132  1  0.84440000  0.29450000  0.12480000  1
  C  C133  1  0.84250000  0.22220000  0.15010000  1
  C  C134  1  0.75960000  0.80010000  0.17080000  1
  C  C135  1  0.75850000  0.65400000  0.12010000  1
  C  C136  1  0.66140000  0.24830000  0.83110000  1
  C  C137  1  0.66170000  0.32210000  0.85500000  1
  C  C138  1  0.82750000  0.28950000  0.87980000  1
  C  C139  1  0.82840000  0.21660000  0.85510000  1
  C  C140  1  0.00420000  0.87770000  0.69640000  1
  C  C141  1  0.99750000  0.65110000  0.52240000  1
  C  C142  1  0.99620000  0.49840000  0.52350000  1
  C  C143  1  0.98870000  0.57460000  0.59420000  1
  C  C144  1  0.99300000  0.57550000  0.54720000  1
  C  C145  1  0.98720000  0.49870000  0.61670000  1
  C  C146  1  0.99920000  0.79970000  0.67020000  1
  C  C147  1  0.58570000  0.75090000  0.66520000  1
  C  C148  1  0.58090000  0.67740000  0.64110000  1
  C  C149  1  0.49340000  0.65580000  0.62000000  1
  C  C150  1  0.90820000  0.70670000  0.62370000  1
  C  C151  1  0.91180000  0.77900000  0.64880000  1
  C  C152  1  0.01100000  0.87560000  0.30140000  1
  C  C153  1  0.00210000  0.65100000  0.47710000  1
  C  C154  1  0.00150000  0.49830000  0.47600000  1
  C  C155  1  0.00840000  0.57400000  0.40530000  1
  C  C156  1  0.00300000  0.57530000  0.45230000  1
  C  C157  1  0.01300000  0.49790000  0.38290000  1
  C  C158  1  0.00910000  0.65160000  0.37880000  1
  C  C159  1  0.99790000  0.11860000  0.30360000  1
  C  C160  1  0.00020000  0.34560000  0.47710000  1
  C  C161  1  0.01090000  0.42220000  0.40540000  1
  C  C162  1  0.00510000  0.42130000  0.45240000  1
  C  C163  1  0.01020000  0.79780000  0.32790000  1
  C  C164  1  0.58990000  0.75080000  0.33100000  1
  C  C165  1  0.58740000  0.67750000  0.35530000  1
  C  C166  1  0.92610000  0.70560000  0.37800000  1
  C  C167  1  0.92610000  0.77750000  0.35240000  1
  C  C168  1  0.99280000  0.12050000  0.69770000  1
  C  C169  1  0.99520000  0.34570000  0.52240000  1
  C  C170  1  0.99070000  0.42270000  0.59430000  1
  C  C171  1  0.99490000  0.42140000  0.54720000  1
  C  C172  1  0.49370000  0.20170000  0.67080000  1
  C  C173  1  0.90880000  0.25150000  0.67130000  1
  C  C174  1  0.90890000  0.32450000  0.64660000  1
  C  C175  1  0.99110000  0.34490000  0.62070000  1
  C  C176  1  0.57620000  0.29530000  0.62100000  1
  C  C177  1  0.57760000  0.22330000  0.64650000  1
  C  C178  1  0.49870000  0.20320000  0.32680000  1
  C  C179  1  0.91820000  0.24800000  0.33420000  1
  C  C180  1  0.92220000  0.32130000  0.35840000  1
  C  C181  1  0.00980000  0.34400000  0.37920000  1
  C  C182  1  0.58370000  0.29390000  0.37690000  1
  C  C183  1  0.58310000  0.22250000  0.35090000  1
  C  C184  1  0.26110000  0.87920000  0.19630000  1
  C  C185  1  0.25430000  0.65280000  0.02140000  1
  C  C186  1  0.25170000  0.50020000  0.02290000  1
  C  C187  1  0.25750000  0.57650000  0.09350000  1
  C  C188  1  0.25360000  0.57730000  0.04650000  1
  C  C189  1  0.26060000  0.50060000  0.11600000  1
  C  C190  1  0.34330000  0.74790000  0.16880000  1
  C  C191  1  0.34190000  0.67470000  0.14440000  1
  C  C192  1  0.17560000  0.70860000  0.12070000  1
  C  C193  1  0.17590000  0.78090000  0.14590000  1
  C  C194  1  0.25690000  0.87760000  0.80140000  1
  C  C195  1  0.25060000  0.65250000  0.97610000  1
  C  C196  1  0.24740000  0.49990000  0.97540000  1
  C  C197  1  0.24180000  0.57540000  0.90450000  1
  C  C198  1  0.24550000  0.57680000  0.95160000  1
  C  C199  1  0.24020000  0.49940000  0.88230000  1
  C  C200  1  0.24220000  0.12080000  0.80150000  1
  C  C201  1  0.24430000  0.34730000  0.97690000  1
  C  C202  1  0.24230000  0.42350000  0.90480000  1
  C  C203  1  0.24550000  0.42280000  0.95190000  1
  C  C204  1  0.24220000  0.19880000  0.82790000  1
  C  C205  1  0.24200000  0.34550000  0.87860000  1
  C  C206  1  0.25200000  0.79980000  0.82780000  1
  C  C207  1  0.33460000  0.74600000  0.83030000  1
  C  C208  1  0.33010000  0.67300000  0.85470000  1
  C  C209  1  0.24410000  0.65330000  0.87810000  1
  C  C210  1  0.16190000  0.70790000  0.87580000  1
  C  C211  1  0.16520000  0.77990000  0.85040000  1
  C  C212  1  0.24670000  0.12080000  0.19560000  1
  C  C213  1  0.24840000  0.34760000  0.02230000  1
  C  C214  1  0.25880000  0.42460000  0.09380000  1
  C  C215  1  0.25410000  0.42330000  0.04680000  1
  C  C216  1  0.25150000  0.19920000  0.16970000  1
  C  C217  1  0.16880000  0.25300000  0.16800000  1
  C  C218  1  0.17250000  0.32650000  0.14390000  1
  C  C219  1  0.25780000  0.34660000  0.12010000  1
  C  C220  1  0.34020000  0.29230000  0.12190000  1
  C  C221  1  0.33780000  0.21970000  0.14690000  1
  C  C222  1  0.26020000  0.80130000  0.16990000  1
  C  C223  1  0.25840000  0.65450000  0.11960000  1
  C  C224  1  0.15870000  0.25190000  0.82880000  1
  C  C225  1  0.15920000  0.32490000  0.85350000  1
  C  C226  1  0.32500000  0.29160000  0.87770000  1
  C  C227  1  0.32580000  0.21960000  0.85230000  1
  C  C228  1  0.50720000  0.88130000  0.69520000  1
  C  C229  1  0.49670000  0.65460000  0.52210000  1
  C  C230  1  0.49440000  0.50180000  0.52300000  1
  C  C231  1  0.49070000  0.57770000  0.59380000  1
  C  C232  1  0.49300000  0.57880000  0.54680000  1
  C  C233  1  0.48980000  0.50190000  0.61630000  1
  C  C234  1  0.50200000  0.80310000  0.66930000  1
  C  C235  1  0.08210000  0.74640000  0.66690000  1
  C  C236  1  0.07740000  0.67320000  0.64270000  1
  C  C237  1  0.99070000  0.65270000  0.62040000  1
  C  C238  1  0.41000000  0.70870000  0.62410000  1
  C  C239  1  0.41370000  0.78120000  0.64900000  1
  C  C240  1  0.50740000  0.88120000  0.30260000  1
  C  C241  1  0.49900000  0.65460000  0.47670000  1
  C  C242  1  0.49710000  0.50190000  0.47550000  1
  C  C243  1  0.50040000  0.57790000  0.40480000  1
  C  C244  1  0.49790000  0.57900000  0.45190000  1
  C  C245  1  0.50220000  0.50210000  0.38240000  1
  C  C246  1  0.50200000  0.65600000  0.37870000  1
  C  C247  1  0.49620000  0.12560000  0.30020000  1
  C  C248  1  0.49470000  0.34930000  0.47650000  1
  C  C249  1  0.50170000  0.42620000  0.40470000  1
  C  C250  1  0.49880000  0.42490000  0.45180000  1
  C  C251  1  0.50580000  0.80310000  0.32880000  1
  C  C252  1  0.09350000  0.74450000  0.32870000  1
  C  C253  1  0.09230000  0.67170000  0.35350000  1
  C  C254  1  0.41830000  0.70880000  0.37640000  1
  C  C255  1  0.41960000  0.78120000  0.35130000  1
  C  C256  1  0.49470000  0.12390000  0.69740000  1
  C  C257  1  0.49230000  0.34920000  0.52190000  1
  C  C258  1  0.49170000  0.42590000  0.59380000  1
  C  C259  1  0.49370000  0.42480000  0.54680000  1
  C  C260  1  0.99230000  0.19840000  0.67130000  1
  C  C261  1  0.40930000  0.25350000  0.66980000  1
  C  C262  1  0.40910000  0.32660000  0.64520000  1
  C  C263  1  0.49220000  0.34800000  0.62010000  1
  C  C264  1  0.07420000  0.29100000  0.62070000  1
  C  C265  1  0.07540000  0.21900000  0.64620000  1
  C  C266  1  0.00270000  0.19690000  0.32950000  1
  C  C267  1  0.41600000  0.25710000  0.32820000  1
  C  C268  1  0.41800000  0.32960000  0.35310000  1
  C  C269  1  0.50140000  0.34860000  0.37820000  1
  C  C270  1  0.09400000  0.29230000  0.37450000  1
  C  C271  1  0.09100000  0.21980000  0.34940000  1
  O  O272  1  0.75010000  0.99990000  0.27570000  1
  O  O273  1  0.84170000  0.90020000  0.21330000  1
  O  O274  1  0.75430000  0.00360000  0.72430000  1
  O  O275  1  0.67190000  0.91240000  0.79160000  1
  O  O276  1  0.82550000  0.07490000  0.80190000  1
  O  O277  1  0.83830000  0.89650000  0.78890000  1
  O  O278  1  0.66620000  0.09640000  0.20840000  1
  O  O279  1  0.67730000  0.91690000  0.20210000  1
  O  O280  1  0.83260000  0.08350000  0.20620000  1
  O  O281  1  0.66250000  0.09540000  0.78880000  1
  O  O282  1  0.00400000  0.99630000  0.77570000  1
  O  O283  1  0.59230000  0.90470000  0.70660000  1
  O  O284  1  0.00090000  0.00000000  0.22410000  1
  O  O285  1  0.92950000  0.91660000  0.29800000  1
  O  O286  1  0.57790000  0.08660000  0.29320000  1
  O  O287  1  0.58980000  0.90380000  0.28700000  1
  O  O288  1  0.91220000  0.09970000  0.71570000  1
  O  O289  1  0.92340000  0.91710000  0.70460000  1
  O  O290  1  0.57780000  0.08580000  0.70220000  1
  O  O291  1  0.91300000  0.09590000  0.29150000  1
  O  O292  1  0.25080000  0.00050000  0.27540000  1
  O  O293  1  0.34250000  0.90010000  0.21320000  1
  O  O294  1  0.25380000  0.99970000  0.72240000  1
  O  O295  1  0.17600000  0.91680000  0.79340000  1
  O  O296  1  0.32390000  0.07960000  0.79810000  1
  O  O297  1  0.34200000  0.90020000  0.78900000  1
  O  O298  1  0.16200000  0.09940000  0.20900000  1
  O  O299  1  0.17980000  0.92070000  0.19990000  1
  O  O300  1  0.32730000  0.07980000  0.20220000  1
  O  O301  1  0.16120000  0.09950000  0.78440000  1
  O  O302  1  0.50320000  0.00000000  0.77550000  1
  O  O303  1  0.08940000  0.90010000  0.70850000  1
  O  O304  1  0.50110000  0.00010000  0.22270000  1
  O  O305  1  0.42570000  0.92120000  0.29800000  1
  O  O306  1  0.07890000  0.07920000  0.29550000  1
  O  O307  1  0.09270000  0.89670000  0.28440000  1
  O  O308  1  0.41290000  0.10020000  0.71330000  1
  O  O309  1  0.42620000  0.92010000  0.70400000  1
  O  O310  1  0.07430000  0.07900000  0.70000000  1
  O  O311  1  0.41210000  0.10310000  0.28680000  1
